version 3
run Medium_Grid_Dns-0-20251214-21:25:33-21325
attr configname Medium_Grid_Dns
attr datetime 20251214-21:25:33
attr datetimef 20251214-212533
attr experiment Medium_Grid_Dns
attr inifile omnetpp.ini
attr iterationvars ""
attr iterationvarsd ""
attr iterationvarsf ""
attr measurement ""
attr network bgpdns.GridNetwork
attr processid 21325
attr repetition 0
attr replication #0
attr resultdir results
attr runnumber 0
attr seedset 0
config description "10x10 grid network with DNS"
config network bgpdns.GridNetwork
config sim-time-limit 60s
config *.gridWidth 10
config *.gridHeight 10
config *.node[44].isAuthority true
config *.node[44].authorityDomain -1
config *.node[45].isResolver true
config *.node[0].isPublisher true
config *.node[0].publishEids "\"1-10\""
config *.node[0].publishStartTime 1s
config *.node[0].authorityNodeId 44
config *.node[9].isPublisher true
config *.node[9].publishEids "\"11-20\""
config *.node[9].publishStartTime 1s
config *.node[9].authorityNodeId 44
config *.node[90].isPublisher true
config *.node[90].publishEids "\"21-30\""
config *.node[90].publishStartTime 1s
config *.node[90].authorityNodeId 44
config *.node[99].isPublisher true
config *.node[99].publishEids "\"31-40\""
config *.node[99].publishStartTime 1s
config *.node[99].authorityNodeId 44
config *.node[54].isClient true
config *.node[54].queryCount 100
config *.node[54].queryInterval 0.5s
config *.node[54].resolverNodeId 45
config *.node[55].isClient true
config *.node[55].queryCount 100
config *.node[55].queryInterval 0.5s
config *.node[55].resolverNodeId 45
config *.node[*].bgpEnabled false
config *.node[*].dnsEnabled true
config *.node[*].dnsTtl 60s
config network bgpdns.ToyLineNetwork
config sim-time-limit 100s
config warmup-period 1s
config output-scalar-file results/Medium_Grid_Dns-
config output-vector-file results/Medium_Grid_Dns-
config seed-set 0
config repeat 5
config **.result-recording-modes default,+histogram
config **.BgpAnnounce.byteSize 64
config **.BgpWithdraw.byteSize 32
config **.DnsQuery.byteSize 48
config **.DnsResponse.byteSize 80
config **.DnsRegister.byteSize 72
config **.DnsDeregister.byteSize 24
config **.DnsReferral.byteSize 32
config **.EidChannel.delay 10ms
config **.HighLatencyChannel.delay 250ms

par GridNetwork.node[0].port$o[0].channel typename "\"bgpdns.EidChannel\""
par GridNetwork.node[0].port$o[0].channel disabled false
attr mutable ""
par GridNetwork.node[0].port$o[0].channel delay 0.01s
attr mutable ""
attr unit s
statistic GridNetwork.node[0].port$o[0].channel messagesDiscarded:histogram
field count 1
field mean 1
field stddev nan
field min 1
field max 1
field sum 1
field sqrsum 1
attr interpolationmode none
attr recordingmode histogram
attr source constant1(messageDiscarded)
bin	-inf	0
bin	0	0
bin	1	1
bin	2	0
statistic GridNetwork.node[0].port$o[0].channel messages:histogram
field count 2
field mean 1
field stddev 0
field min 1
field max 1
field sum 2
field sqrsum 2
attr interpolationmode none
attr recordingmode histogram
attr source constant1(messageSent)
bin	-inf	0
bin	0	0
bin	1	2
bin	2	0
par GridNetwork.node[1].port$o[0].channel typename "\"bgpdns.EidChannel\""
par GridNetwork.node[1].port$o[0].channel disabled false
attr mutable ""
par GridNetwork.node[1].port$o[0].channel delay 0.01s
attr mutable ""
attr unit s
statistic GridNetwork.node[1].port$o[0].channel messagesDiscarded:histogram
field count 1
field mean 1
field stddev nan
field min 1
field max 1
field sum 1
field sqrsum 1
attr interpolationmode none
attr recordingmode histogram
attr source constant1(messageDiscarded)
bin	-inf	0
bin	0	0
bin	1	1
bin	2	0
statistic GridNetwork.node[1].port$o[0].channel messages:histogram
field count 1
field mean 1
field stddev nan
field min 1
field max 1
field sum 1
field sqrsum 1
attr interpolationmode none
attr recordingmode histogram
attr source constant1(messageSent)
bin	-inf	0
bin	0	0
bin	1	1
bin	2	0
par GridNetwork.node[1].port$o[1].channel typename "\"bgpdns.EidChannel\""
par GridNetwork.node[1].port$o[1].channel disabled false
attr mutable ""
par GridNetwork.node[1].port$o[1].channel delay 0.01s
attr mutable ""
attr unit s
statistic GridNetwork.node[1].port$o[1].channel messagesDiscarded:histogram
field count 1
field mean 1
field stddev nan
field min 1
field max 1
field sum 1
field sqrsum 1
attr interpolationmode none
attr recordingmode histogram
attr source constant1(messageDiscarded)
bin	-inf	0
bin	0	0
bin	1	1
bin	2	0
statistic GridNetwork.node[1].port$o[1].channel messages:histogram
field count 1
field mean 1
field stddev nan
field min 1
field max 1
field sum 1
field sqrsum 1
attr interpolationmode none
attr recordingmode histogram
attr source constant1(messageSent)
bin	-inf	0
bin	0	0
bin	1	1
bin	2	0
par GridNetwork.node[2].port$o[0].channel typename "\"bgpdns.EidChannel\""
par GridNetwork.node[2].port$o[0].channel disabled false
attr mutable ""
par GridNetwork.node[2].port$o[0].channel delay 0.01s
attr mutable ""
attr unit s
statistic GridNetwork.node[2].port$o[0].channel messagesDiscarded:histogram
field count 1
field mean 1
field stddev nan
field min 1
field max 1
field sum 1
field sqrsum 1
attr interpolationmode none
attr recordingmode histogram
attr source constant1(messageDiscarded)
bin	-inf	0
bin	0	0
bin	1	1
bin	2	0
statistic GridNetwork.node[2].port$o[0].channel messages:histogram
field count 1
field mean 1
field stddev nan
field min 1
field max 1
field sum 1
field sqrsum 1
attr interpolationmode none
attr recordingmode histogram
attr source constant1(messageSent)
bin	-inf	0
bin	0	0
bin	1	1
bin	2	0
par GridNetwork.node[2].port$o[1].channel typename "\"bgpdns.EidChannel\""
par GridNetwork.node[2].port$o[1].channel disabled false
attr mutable ""
par GridNetwork.node[2].port$o[1].channel delay 0.01s
attr mutable ""
attr unit s
statistic GridNetwork.node[2].port$o[1].channel messagesDiscarded:histogram
field count 1
field mean 1
field stddev nan
field min 1
field max 1
field sum 1
field sqrsum 1
attr interpolationmode none
attr recordingmode histogram
attr source constant1(messageDiscarded)
bin	-inf	0
bin	0	0
bin	1	1
bin	2	0
statistic GridNetwork.node[2].port$o[1].channel messages:histogram
field count 1
field mean 1
field stddev nan
field min 1
field max 1
field sum 1
field sqrsum 1
attr interpolationmode none
attr recordingmode histogram
attr source constant1(messageSent)
bin	-inf	0
bin	0	0
bin	1	1
bin	2	0
par GridNetwork.node[3].port$o[0].channel typename "\"bgpdns.EidChannel\""
par GridNetwork.node[3].port$o[0].channel disabled false
attr mutable ""
par GridNetwork.node[3].port$o[0].channel delay 0.01s
attr mutable ""
attr unit s
statistic GridNetwork.node[3].port$o[0].channel messagesDiscarded:histogram
field count 1
field mean 1
field stddev nan
field min 1
field max 1
field sum 1
field sqrsum 1
attr interpolationmode none
attr recordingmode histogram
attr source constant1(messageDiscarded)
bin	-inf	0
bin	0	0
bin	1	1
bin	2	0
statistic GridNetwork.node[3].port$o[0].channel messages:histogram
field count 1
field mean 1
field stddev nan
field min 1
field max 1
field sum 1
field sqrsum 1
attr interpolationmode none
attr recordingmode histogram
attr source constant1(messageSent)
bin	-inf	0
bin	0	0
bin	1	1
bin	2	0
par GridNetwork.node[3].port$o[1].channel typename "\"bgpdns.EidChannel\""
par GridNetwork.node[3].port$o[1].channel disabled false
attr mutable ""
par GridNetwork.node[3].port$o[1].channel delay 0.01s
attr mutable ""
attr unit s
statistic GridNetwork.node[3].port$o[1].channel messagesDiscarded:histogram
field count 1
field mean 1
field stddev nan
field min 1
field max 1
field sum 1
field sqrsum 1
attr interpolationmode none
attr recordingmode histogram
attr source constant1(messageDiscarded)
bin	-inf	0
bin	0	0
bin	1	1
bin	2	0
statistic GridNetwork.node[3].port$o[1].channel messages:histogram
field count 1
field mean 1
field stddev nan
field min 1
field max 1
field sum 1
field sqrsum 1
attr interpolationmode none
attr recordingmode histogram
attr source constant1(messageSent)
bin	-inf	0
bin	0	0
bin	1	1
bin	2	0
par GridNetwork.node[4].port$o[0].channel typename "\"bgpdns.EidChannel\""
par GridNetwork.node[4].port$o[0].channel disabled false
attr mutable ""
par GridNetwork.node[4].port$o[0].channel delay 0.01s
attr mutable ""
attr unit s
statistic GridNetwork.node[4].port$o[0].channel messagesDiscarded:histogram
field count 1
field mean 1
field stddev nan
field min 1
field max 1
field sum 1
field sqrsum 1
attr interpolationmode none
attr recordingmode histogram
attr source constant1(messageDiscarded)
bin	-inf	0
bin	0	0
bin	1	1
bin	2	0
statistic GridNetwork.node[4].port$o[0].channel messages:histogram
field count 1
field mean 1
field stddev nan
field min 1
field max 1
field sum 1
field sqrsum 1
attr interpolationmode none
attr recordingmode histogram
attr source constant1(messageSent)
bin	-inf	0
bin	0	0
bin	1	1
bin	2	0
par GridNetwork.node[4].port$o[1].channel typename "\"bgpdns.EidChannel\""
par GridNetwork.node[4].port$o[1].channel disabled false
attr mutable ""
par GridNetwork.node[4].port$o[1].channel delay 0.01s
attr mutable ""
attr unit s
statistic GridNetwork.node[4].port$o[1].channel messagesDiscarded:histogram
field count 1
field mean 1
field stddev nan
field min 1
field max 1
field sum 1
field sqrsum 1
attr interpolationmode none
attr recordingmode histogram
attr source constant1(messageDiscarded)
bin	-inf	0
bin	0	0
bin	1	1
bin	2	0
statistic GridNetwork.node[4].port$o[1].channel messages:histogram
field count 1
field mean 1
field stddev nan
field min 1
field max 1
field sum 1
field sqrsum 1
attr interpolationmode none
attr recordingmode histogram
attr source constant1(messageSent)
bin	-inf	0
bin	0	0
bin	1	1
bin	2	0
par GridNetwork.node[5].port$o[0].channel typename "\"bgpdns.EidChannel\""
par GridNetwork.node[5].port$o[0].channel disabled false
attr mutable ""
par GridNetwork.node[5].port$o[0].channel delay 0.01s
attr mutable ""
attr unit s
statistic GridNetwork.node[5].port$o[0].channel messagesDiscarded:histogram
field count 1
field mean 1
field stddev nan
field min 1
field max 1
field sum 1
field sqrsum 1
attr interpolationmode none
attr recordingmode histogram
attr source constant1(messageDiscarded)
bin	-inf	0
bin	0	0
bin	1	1
bin	2	0
statistic GridNetwork.node[5].port$o[0].channel messages:histogram
field count 1
field mean 1
field stddev nan
field min 1
field max 1
field sum 1
field sqrsum 1
attr interpolationmode none
attr recordingmode histogram
attr source constant1(messageSent)
bin	-inf	0
bin	0	0
bin	1	1
bin	2	0
par GridNetwork.node[5].port$o[1].channel typename "\"bgpdns.EidChannel\""
par GridNetwork.node[5].port$o[1].channel disabled false
attr mutable ""
par GridNetwork.node[5].port$o[1].channel delay 0.01s
attr mutable ""
attr unit s
statistic GridNetwork.node[5].port$o[1].channel messagesDiscarded:histogram
field count 1
field mean 1
field stddev nan
field min 1
field max 1
field sum 1
field sqrsum 1
attr interpolationmode none
attr recordingmode histogram
attr source constant1(messageDiscarded)
bin	-inf	0
bin	0	0
bin	1	1
bin	2	0
statistic GridNetwork.node[5].port$o[1].channel messages:histogram
field count 1
field mean 1
field stddev nan
field min 1
field max 1
field sum 1
field sqrsum 1
attr interpolationmode none
attr recordingmode histogram
attr source constant1(messageSent)
bin	-inf	0
bin	0	0
bin	1	1
bin	2	0
par GridNetwork.node[6].port$o[0].channel typename "\"bgpdns.EidChannel\""
par GridNetwork.node[6].port$o[0].channel disabled false
attr mutable ""
par GridNetwork.node[6].port$o[0].channel delay 0.01s
attr mutable ""
attr unit s
statistic GridNetwork.node[6].port$o[0].channel messagesDiscarded:histogram
field count 1
field mean 1
field stddev nan
field min 1
field max 1
field sum 1
field sqrsum 1
attr interpolationmode none
attr recordingmode histogram
attr source constant1(messageDiscarded)
bin	-inf	0
bin	0	0
bin	1	1
bin	2	0
statistic GridNetwork.node[6].port$o[0].channel messages:histogram
field count 1
field mean 1
field stddev nan
field min 1
field max 1
field sum 1
field sqrsum 1
attr interpolationmode none
attr recordingmode histogram
attr source constant1(messageSent)
bin	-inf	0
bin	0	0
bin	1	1
bin	2	0
par GridNetwork.node[6].port$o[1].channel typename "\"bgpdns.EidChannel\""
par GridNetwork.node[6].port$o[1].channel disabled false
attr mutable ""
par GridNetwork.node[6].port$o[1].channel delay 0.01s
attr mutable ""
attr unit s
statistic GridNetwork.node[6].port$o[1].channel messagesDiscarded:histogram
field count 1
field mean 1
field stddev nan
field min 1
field max 1
field sum 1
field sqrsum 1
attr interpolationmode none
attr recordingmode histogram
attr source constant1(messageDiscarded)
bin	-inf	0
bin	0	0
bin	1	1
bin	2	0
statistic GridNetwork.node[6].port$o[1].channel messages:histogram
field count 1
field mean 1
field stddev nan
field min 1
field max 1
field sum 1
field sqrsum 1
attr interpolationmode none
attr recordingmode histogram
attr source constant1(messageSent)
bin	-inf	0
bin	0	0
bin	1	1
bin	2	0
par GridNetwork.node[7].port$o[0].channel typename "\"bgpdns.EidChannel\""
par GridNetwork.node[7].port$o[0].channel disabled false
attr mutable ""
par GridNetwork.node[7].port$o[0].channel delay 0.01s
attr mutable ""
attr unit s
statistic GridNetwork.node[7].port$o[0].channel messagesDiscarded:histogram
field count 1
field mean 1
field stddev nan
field min 1
field max 1
field sum 1
field sqrsum 1
attr interpolationmode none
attr recordingmode histogram
attr source constant1(messageDiscarded)
bin	-inf	0
bin	0	0
bin	1	1
bin	2	0
statistic GridNetwork.node[7].port$o[0].channel messages:histogram
field count 1
field mean 1
field stddev nan
field min 1
field max 1
field sum 1
field sqrsum 1
attr interpolationmode none
attr recordingmode histogram
attr source constant1(messageSent)
bin	-inf	0
bin	0	0
bin	1	1
bin	2	0
par GridNetwork.node[7].port$o[1].channel typename "\"bgpdns.EidChannel\""
par GridNetwork.node[7].port$o[1].channel disabled false
attr mutable ""
par GridNetwork.node[7].port$o[1].channel delay 0.01s
attr mutable ""
attr unit s
statistic GridNetwork.node[7].port$o[1].channel messagesDiscarded:histogram
field count 1
field mean 1
field stddev nan
field min 1
field max 1
field sum 1
field sqrsum 1
attr interpolationmode none
attr recordingmode histogram
attr source constant1(messageDiscarded)
bin	-inf	0
bin	0	0
bin	1	1
bin	2	0
statistic GridNetwork.node[7].port$o[1].channel messages:histogram
field count 1
field mean 1
field stddev nan
field min 1
field max 1
field sum 1
field sqrsum 1
attr interpolationmode none
attr recordingmode histogram
attr source constant1(messageSent)
bin	-inf	0
bin	0	0
bin	1	1
bin	2	0
par GridNetwork.node[8].port$o[0].channel typename "\"bgpdns.EidChannel\""
par GridNetwork.node[8].port$o[0].channel disabled false
attr mutable ""
par GridNetwork.node[8].port$o[0].channel delay 0.01s
attr mutable ""
attr unit s
statistic GridNetwork.node[8].port$o[0].channel messagesDiscarded:histogram
field count 1
field mean 1
field stddev nan
field min 1
field max 1
field sum 1
field sqrsum 1
attr interpolationmode none
attr recordingmode histogram
attr source constant1(messageDiscarded)
bin	-inf	0
bin	0	0
bin	1	1
bin	2	0
statistic GridNetwork.node[8].port$o[0].channel messages:histogram
field count 1
field mean 1
field stddev nan
field min 1
field max 1
field sum 1
field sqrsum 1
attr interpolationmode none
attr recordingmode histogram
attr source constant1(messageSent)
bin	-inf	0
bin	0	0
bin	1	1
bin	2	0
par GridNetwork.node[8].port$o[1].channel typename "\"bgpdns.EidChannel\""
par GridNetwork.node[8].port$o[1].channel disabled false
attr mutable ""
par GridNetwork.node[8].port$o[1].channel delay 0.01s
attr mutable ""
attr unit s
statistic GridNetwork.node[8].port$o[1].channel messagesDiscarded:histogram
field count 1
field mean 1
field stddev nan
field min 1
field max 1
field sum 1
field sqrsum 1
attr interpolationmode none
attr recordingmode histogram
attr source constant1(messageDiscarded)
bin	-inf	0
bin	0	0
bin	1	1
bin	2	0
statistic GridNetwork.node[8].port$o[1].channel messages:histogram
field count 1
field mean 1
field stddev nan
field min 1
field max 1
field sum 1
field sqrsum 1
attr interpolationmode none
attr recordingmode histogram
attr source constant1(messageSent)
bin	-inf	0
bin	0	0
bin	1	1
bin	2	0
par GridNetwork.node[9].port$o[0].channel typename "\"bgpdns.EidChannel\""
par GridNetwork.node[9].port$o[0].channel disabled false
attr mutable ""
par GridNetwork.node[9].port$o[0].channel delay 0.01s
attr mutable ""
attr unit s
statistic GridNetwork.node[9].port$o[0].channel messagesDiscarded:histogram
field count 1
field mean 1
field stddev nan
field min 1
field max 1
field sum 1
field sqrsum 1
attr interpolationmode none
attr recordingmode histogram
attr source constant1(messageDiscarded)
bin	-inf	0
bin	0	0
bin	1	1
bin	2	0
statistic GridNetwork.node[9].port$o[0].channel messages:histogram
field count 2
field mean 1
field stddev 0
field min 1
field max 1
field sum 2
field sqrsum 2
attr interpolationmode none
attr recordingmode histogram
attr source constant1(messageSent)
bin	-inf	0
bin	0	0
bin	1	2
bin	2	0
par GridNetwork.node[10].port$o[0].channel typename "\"bgpdns.EidChannel\""
par GridNetwork.node[10].port$o[0].channel disabled false
attr mutable ""
par GridNetwork.node[10].port$o[0].channel delay 0.01s
attr mutable ""
attr unit s
statistic GridNetwork.node[10].port$o[0].channel messagesDiscarded:histogram
field count 1
field mean 1
field stddev nan
field min 1
field max 1
field sum 1
field sqrsum 1
attr interpolationmode none
attr recordingmode histogram
attr source constant1(messageDiscarded)
bin	-inf	0
bin	0	0
bin	1	1
bin	2	0
statistic GridNetwork.node[10].port$o[0].channel messages:histogram
field count 1
field mean 1
field stddev nan
field min 1
field max 1
field sum 1
field sqrsum 1
attr interpolationmode none
attr recordingmode histogram
attr source constant1(messageSent)
bin	-inf	0
bin	0	0
bin	1	1
bin	2	0
par GridNetwork.node[11].port$o[0].channel typename "\"bgpdns.EidChannel\""
par GridNetwork.node[11].port$o[0].channel disabled false
attr mutable ""
par GridNetwork.node[11].port$o[0].channel delay 0.01s
attr mutable ""
attr unit s
statistic GridNetwork.node[11].port$o[0].channel messagesDiscarded:histogram
field count 1
field mean 1
field stddev nan
field min 1
field max 1
field sum 1
field sqrsum 1
attr interpolationmode none
attr recordingmode histogram
attr source constant1(messageDiscarded)
bin	-inf	0
bin	0	0
bin	1	1
bin	2	0
statistic GridNetwork.node[11].port$o[0].channel messages:histogram
field count 1
field mean 1
field stddev nan
field min 1
field max 1
field sum 1
field sqrsum 1
attr interpolationmode none
attr recordingmode histogram
attr source constant1(messageSent)
bin	-inf	0
bin	0	0
bin	1	1
bin	2	0
par GridNetwork.node[11].port$o[1].channel typename "\"bgpdns.EidChannel\""
par GridNetwork.node[11].port$o[1].channel disabled false
attr mutable ""
par GridNetwork.node[11].port$o[1].channel delay 0.01s
attr mutable ""
attr unit s
statistic GridNetwork.node[11].port$o[1].channel messagesDiscarded:histogram
field count 1
field mean 1
field stddev nan
field min 1
field max 1
field sum 1
field sqrsum 1
attr interpolationmode none
attr recordingmode histogram
attr source constant1(messageDiscarded)
bin	-inf	0
bin	0	0
bin	1	1
bin	2	0
statistic GridNetwork.node[11].port$o[1].channel messages:histogram
field count 1
field mean 1
field stddev nan
field min 1
field max 1
field sum 1
field sqrsum 1
attr interpolationmode none
attr recordingmode histogram
attr source constant1(messageSent)
bin	-inf	0
bin	0	0
bin	1	1
bin	2	0
par GridNetwork.node[12].port$o[0].channel typename "\"bgpdns.EidChannel\""
par GridNetwork.node[12].port$o[0].channel disabled false
attr mutable ""
par GridNetwork.node[12].port$o[0].channel delay 0.01s
attr mutable ""
attr unit s
statistic GridNetwork.node[12].port$o[0].channel messagesDiscarded:histogram
field count 1
field mean 1
field stddev nan
field min 1
field max 1
field sum 1
field sqrsum 1
attr interpolationmode none
attr recordingmode histogram
attr source constant1(messageDiscarded)
bin	-inf	0
bin	0	0
bin	1	1
bin	2	0
statistic GridNetwork.node[12].port$o[0].channel messages:histogram
field count 1
field mean 1
field stddev nan
field min 1
field max 1
field sum 1
field sqrsum 1
attr interpolationmode none
attr recordingmode histogram
attr source constant1(messageSent)
bin	-inf	0
bin	0	0
bin	1	1
bin	2	0
par GridNetwork.node[12].port$o[1].channel typename "\"bgpdns.EidChannel\""
par GridNetwork.node[12].port$o[1].channel disabled false
attr mutable ""
par GridNetwork.node[12].port$o[1].channel delay 0.01s
attr mutable ""
attr unit s
statistic GridNetwork.node[12].port$o[1].channel messagesDiscarded:histogram
field count 1
field mean 1
field stddev nan
field min 1
field max 1
field sum 1
field sqrsum 1
attr interpolationmode none
attr recordingmode histogram
attr source constant1(messageDiscarded)
bin	-inf	0
bin	0	0
bin	1	1
bin	2	0
statistic GridNetwork.node[12].port$o[1].channel messages:histogram
field count 1
field mean 1
field stddev nan
field min 1
field max 1
field sum 1
field sqrsum 1
attr interpolationmode none
attr recordingmode histogram
attr source constant1(messageSent)
bin	-inf	0
bin	0	0
bin	1	1
bin	2	0
par GridNetwork.node[13].port$o[0].channel typename "\"bgpdns.EidChannel\""
par GridNetwork.node[13].port$o[0].channel disabled false
attr mutable ""
par GridNetwork.node[13].port$o[0].channel delay 0.01s
attr mutable ""
attr unit s
statistic GridNetwork.node[13].port$o[0].channel messagesDiscarded:histogram
field count 1
field mean 1
field stddev nan
field min 1
field max 1
field sum 1
field sqrsum 1
attr interpolationmode none
attr recordingmode histogram
attr source constant1(messageDiscarded)
bin	-inf	0
bin	0	0
bin	1	1
bin	2	0
statistic GridNetwork.node[13].port$o[0].channel messages:histogram
field count 1
field mean 1
field stddev nan
field min 1
field max 1
field sum 1
field sqrsum 1
attr interpolationmode none
attr recordingmode histogram
attr source constant1(messageSent)
bin	-inf	0
bin	0	0
bin	1	1
bin	2	0
par GridNetwork.node[13].port$o[1].channel typename "\"bgpdns.EidChannel\""
par GridNetwork.node[13].port$o[1].channel disabled false
attr mutable ""
par GridNetwork.node[13].port$o[1].channel delay 0.01s
attr mutable ""
attr unit s
statistic GridNetwork.node[13].port$o[1].channel messagesDiscarded:histogram
field count 1
field mean 1
field stddev nan
field min 1
field max 1
field sum 1
field sqrsum 1
attr interpolationmode none
attr recordingmode histogram
attr source constant1(messageDiscarded)
bin	-inf	0
bin	0	0
bin	1	1
bin	2	0
statistic GridNetwork.node[13].port$o[1].channel messages:histogram
field count 1
field mean 1
field stddev nan
field min 1
field max 1
field sum 1
field sqrsum 1
attr interpolationmode none
attr recordingmode histogram
attr source constant1(messageSent)
bin	-inf	0
bin	0	0
bin	1	1
bin	2	0
par GridNetwork.node[14].port$o[0].channel typename "\"bgpdns.EidChannel\""
par GridNetwork.node[14].port$o[0].channel disabled false
attr mutable ""
par GridNetwork.node[14].port$o[0].channel delay 0.01s
attr mutable ""
attr unit s
statistic GridNetwork.node[14].port$o[0].channel messagesDiscarded:histogram
field count 1
field mean 1
field stddev nan
field min 1
field max 1
field sum 1
field sqrsum 1
attr interpolationmode none
attr recordingmode histogram
attr source constant1(messageDiscarded)
bin	-inf	0
bin	0	0
bin	1	1
bin	2	0
statistic GridNetwork.node[14].port$o[0].channel messages:histogram
field count 1
field mean 1
field stddev nan
field min 1
field max 1
field sum 1
field sqrsum 1
attr interpolationmode none
attr recordingmode histogram
attr source constant1(messageSent)
bin	-inf	0
bin	0	0
bin	1	1
bin	2	0
par GridNetwork.node[14].port$o[1].channel typename "\"bgpdns.EidChannel\""
par GridNetwork.node[14].port$o[1].channel disabled false
attr mutable ""
par GridNetwork.node[14].port$o[1].channel delay 0.01s
attr mutable ""
attr unit s
statistic GridNetwork.node[14].port$o[1].channel messagesDiscarded:histogram
field count 1
field mean 1
field stddev nan
field min 1
field max 1
field sum 1
field sqrsum 1
attr interpolationmode none
attr recordingmode histogram
attr source constant1(messageDiscarded)
bin	-inf	0
bin	0	0
bin	1	1
bin	2	0
statistic GridNetwork.node[14].port$o[1].channel messages:histogram
field count 1
field mean 1
field stddev nan
field min 1
field max 1
field sum 1
field sqrsum 1
attr interpolationmode none
attr recordingmode histogram
attr source constant1(messageSent)
bin	-inf	0
bin	0	0
bin	1	1
bin	2	0
par GridNetwork.node[15].port$o[0].channel typename "\"bgpdns.EidChannel\""
par GridNetwork.node[15].port$o[0].channel disabled false
attr mutable ""
par GridNetwork.node[15].port$o[0].channel delay 0.01s
attr mutable ""
attr unit s
statistic GridNetwork.node[15].port$o[0].channel messagesDiscarded:histogram
field count 1
field mean 1
field stddev nan
field min 1
field max 1
field sum 1
field sqrsum 1
attr interpolationmode none
attr recordingmode histogram
attr source constant1(messageDiscarded)
bin	-inf	0
bin	0	0
bin	1	1
bin	2	0
statistic GridNetwork.node[15].port$o[0].channel messages:histogram
field count 1
field mean 1
field stddev nan
field min 1
field max 1
field sum 1
field sqrsum 1
attr interpolationmode none
attr recordingmode histogram
attr source constant1(messageSent)
bin	-inf	0
bin	0	0
bin	1	1
bin	2	0
par GridNetwork.node[15].port$o[1].channel typename "\"bgpdns.EidChannel\""
par GridNetwork.node[15].port$o[1].channel disabled false
attr mutable ""
par GridNetwork.node[15].port$o[1].channel delay 0.01s
attr mutable ""
attr unit s
statistic GridNetwork.node[15].port$o[1].channel messagesDiscarded:histogram
field count 1
field mean 1
field stddev nan
field min 1
field max 1
field sum 1
field sqrsum 1
attr interpolationmode none
attr recordingmode histogram
attr source constant1(messageDiscarded)
bin	-inf	0
bin	0	0
bin	1	1
bin	2	0
statistic GridNetwork.node[15].port$o[1].channel messages:histogram
field count 1
field mean 1
field stddev nan
field min 1
field max 1
field sum 1
field sqrsum 1
attr interpolationmode none
attr recordingmode histogram
attr source constant1(messageSent)
bin	-inf	0
bin	0	0
bin	1	1
bin	2	0
par GridNetwork.node[16].port$o[0].channel typename "\"bgpdns.EidChannel\""
par GridNetwork.node[16].port$o[0].channel disabled false
attr mutable ""
par GridNetwork.node[16].port$o[0].channel delay 0.01s
attr mutable ""
attr unit s
statistic GridNetwork.node[16].port$o[0].channel messagesDiscarded:histogram
field count 1
field mean 1
field stddev nan
field min 1
field max 1
field sum 1
field sqrsum 1
attr interpolationmode none
attr recordingmode histogram
attr source constant1(messageDiscarded)
bin	-inf	0
bin	0	0
bin	1	1
bin	2	0
statistic GridNetwork.node[16].port$o[0].channel messages:histogram
field count 1
field mean 1
field stddev nan
field min 1
field max 1
field sum 1
field sqrsum 1
attr interpolationmode none
attr recordingmode histogram
attr source constant1(messageSent)
bin	-inf	0
bin	0	0
bin	1	1
bin	2	0
par GridNetwork.node[16].port$o[1].channel typename "\"bgpdns.EidChannel\""
par GridNetwork.node[16].port$o[1].channel disabled false
attr mutable ""
par GridNetwork.node[16].port$o[1].channel delay 0.01s
attr mutable ""
attr unit s
statistic GridNetwork.node[16].port$o[1].channel messagesDiscarded:histogram
field count 1
field mean 1
field stddev nan
field min 1
field max 1
field sum 1
field sqrsum 1
attr interpolationmode none
attr recordingmode histogram
attr source constant1(messageDiscarded)
bin	-inf	0
bin	0	0
bin	1	1
bin	2	0
statistic GridNetwork.node[16].port$o[1].channel messages:histogram
field count 1
field mean 1
field stddev nan
field min 1
field max 1
field sum 1
field sqrsum 1
attr interpolationmode none
attr recordingmode histogram
attr source constant1(messageSent)
bin	-inf	0
bin	0	0
bin	1	1
bin	2	0
par GridNetwork.node[17].port$o[0].channel typename "\"bgpdns.EidChannel\""
par GridNetwork.node[17].port$o[0].channel disabled false
attr mutable ""
par GridNetwork.node[17].port$o[0].channel delay 0.01s
attr mutable ""
attr unit s
statistic GridNetwork.node[17].port$o[0].channel messagesDiscarded:histogram
field count 1
field mean 1
field stddev nan
field min 1
field max 1
field sum 1
field sqrsum 1
attr interpolationmode none
attr recordingmode histogram
attr source constant1(messageDiscarded)
bin	-inf	0
bin	0	0
bin	1	1
bin	2	0
statistic GridNetwork.node[17].port$o[0].channel messages:histogram
field count 1
field mean 1
field stddev nan
field min 1
field max 1
field sum 1
field sqrsum 1
attr interpolationmode none
attr recordingmode histogram
attr source constant1(messageSent)
bin	-inf	0
bin	0	0
bin	1	1
bin	2	0
par GridNetwork.node[17].port$o[1].channel typename "\"bgpdns.EidChannel\""
par GridNetwork.node[17].port$o[1].channel disabled false
attr mutable ""
par GridNetwork.node[17].port$o[1].channel delay 0.01s
attr mutable ""
attr unit s
statistic GridNetwork.node[17].port$o[1].channel messagesDiscarded:histogram
field count 1
field mean 1
field stddev nan
field min 1
field max 1
field sum 1
field sqrsum 1
attr interpolationmode none
attr recordingmode histogram
attr source constant1(messageDiscarded)
bin	-inf	0
bin	0	0
bin	1	1
bin	2	0
statistic GridNetwork.node[17].port$o[1].channel messages:histogram
field count 1
field mean 1
field stddev nan
field min 1
field max 1
field sum 1
field sqrsum 1
attr interpolationmode none
attr recordingmode histogram
attr source constant1(messageSent)
bin	-inf	0
bin	0	0
bin	1	1
bin	2	0
par GridNetwork.node[18].port$o[0].channel typename "\"bgpdns.EidChannel\""
par GridNetwork.node[18].port$o[0].channel disabled false
attr mutable ""
par GridNetwork.node[18].port$o[0].channel delay 0.01s
attr mutable ""
attr unit s
statistic GridNetwork.node[18].port$o[0].channel messagesDiscarded:histogram
field count 1
field mean 1
field stddev nan
field min 1
field max 1
field sum 1
field sqrsum 1
attr interpolationmode none
attr recordingmode histogram
attr source constant1(messageDiscarded)
bin	-inf	0
bin	0	0
bin	1	1
bin	2	0
statistic GridNetwork.node[18].port$o[0].channel messages:histogram
field count 1
field mean 1
field stddev nan
field min 1
field max 1
field sum 1
field sqrsum 1
attr interpolationmode none
attr recordingmode histogram
attr source constant1(messageSent)
bin	-inf	0
bin	0	0
bin	1	1
bin	2	0
par GridNetwork.node[18].port$o[1].channel typename "\"bgpdns.EidChannel\""
par GridNetwork.node[18].port$o[1].channel disabled false
attr mutable ""
par GridNetwork.node[18].port$o[1].channel delay 0.01s
attr mutable ""
attr unit s
statistic GridNetwork.node[18].port$o[1].channel messagesDiscarded:histogram
field count 1
field mean 1
field stddev nan
field min 1
field max 1
field sum 1
field sqrsum 1
attr interpolationmode none
attr recordingmode histogram
attr source constant1(messageDiscarded)
bin	-inf	0
bin	0	0
bin	1	1
bin	2	0
statistic GridNetwork.node[18].port$o[1].channel messages:histogram
field count 1
field mean 1
field stddev nan
field min 1
field max 1
field sum 1
field sqrsum 1
attr interpolationmode none
attr recordingmode histogram
attr source constant1(messageSent)
bin	-inf	0
bin	0	0
bin	1	1
bin	2	0
par GridNetwork.node[19].port$o[0].channel typename "\"bgpdns.EidChannel\""
par GridNetwork.node[19].port$o[0].channel disabled false
attr mutable ""
par GridNetwork.node[19].port$o[0].channel delay 0.01s
attr mutable ""
attr unit s
statistic GridNetwork.node[19].port$o[0].channel messagesDiscarded:histogram
field count 1
field mean 1
field stddev nan
field min 1
field max 1
field sum 1
field sqrsum 1
attr interpolationmode none
attr recordingmode histogram
attr source constant1(messageDiscarded)
bin	-inf	0
bin	0	0
bin	1	1
bin	2	0
statistic GridNetwork.node[19].port$o[0].channel messages:histogram
field count 1
field mean 1
field stddev nan
field min 1
field max 1
field sum 1
field sqrsum 1
attr interpolationmode none
attr recordingmode histogram
attr source constant1(messageSent)
bin	-inf	0
bin	0	0
bin	1	1
bin	2	0
par GridNetwork.node[20].port$o[0].channel typename "\"bgpdns.EidChannel\""
par GridNetwork.node[20].port$o[0].channel disabled false
attr mutable ""
par GridNetwork.node[20].port$o[0].channel delay 0.01s
attr mutable ""
attr unit s
statistic GridNetwork.node[20].port$o[0].channel messagesDiscarded:histogram
field count 1
field mean 1
field stddev nan
field min 1
field max 1
field sum 1
field sqrsum 1
attr interpolationmode none
attr recordingmode histogram
attr source constant1(messageDiscarded)
bin	-inf	0
bin	0	0
bin	1	1
bin	2	0
statistic GridNetwork.node[20].port$o[0].channel messages:histogram
field count 1
field mean 1
field stddev nan
field min 1
field max 1
field sum 1
field sqrsum 1
attr interpolationmode none
attr recordingmode histogram
attr source constant1(messageSent)
bin	-inf	0
bin	0	0
bin	1	1
bin	2	0
par GridNetwork.node[21].port$o[0].channel typename "\"bgpdns.EidChannel\""
par GridNetwork.node[21].port$o[0].channel disabled false
attr mutable ""
par GridNetwork.node[21].port$o[0].channel delay 0.01s
attr mutable ""
attr unit s
statistic GridNetwork.node[21].port$o[0].channel messagesDiscarded:histogram
field count 1
field mean 1
field stddev nan
field min 1
field max 1
field sum 1
field sqrsum 1
attr interpolationmode none
attr recordingmode histogram
attr source constant1(messageDiscarded)
bin	-inf	0
bin	0	0
bin	1	1
bin	2	0
statistic GridNetwork.node[21].port$o[0].channel messages:histogram
field count 1
field mean 1
field stddev nan
field min 1
field max 1
field sum 1
field sqrsum 1
attr interpolationmode none
attr recordingmode histogram
attr source constant1(messageSent)
bin	-inf	0
bin	0	0
bin	1	1
bin	2	0
par GridNetwork.node[21].port$o[1].channel typename "\"bgpdns.EidChannel\""
par GridNetwork.node[21].port$o[1].channel disabled false
attr mutable ""
par GridNetwork.node[21].port$o[1].channel delay 0.01s
attr mutable ""
attr unit s
statistic GridNetwork.node[21].port$o[1].channel messagesDiscarded:histogram
field count 1
field mean 1
field stddev nan
field min 1
field max 1
field sum 1
field sqrsum 1
attr interpolationmode none
attr recordingmode histogram
attr source constant1(messageDiscarded)
bin	-inf	0
bin	0	0
bin	1	1
bin	2	0
statistic GridNetwork.node[21].port$o[1].channel messages:histogram
field count 1
field mean 1
field stddev nan
field min 1
field max 1
field sum 1
field sqrsum 1
attr interpolationmode none
attr recordingmode histogram
attr source constant1(messageSent)
bin	-inf	0
bin	0	0
bin	1	1
bin	2	0
par GridNetwork.node[22].port$o[0].channel typename "\"bgpdns.EidChannel\""
par GridNetwork.node[22].port$o[0].channel disabled false
attr mutable ""
par GridNetwork.node[22].port$o[0].channel delay 0.01s
attr mutable ""
attr unit s
statistic GridNetwork.node[22].port$o[0].channel messagesDiscarded:histogram
field count 1
field mean 1
field stddev nan
field min 1
field max 1
field sum 1
field sqrsum 1
attr interpolationmode none
attr recordingmode histogram
attr source constant1(messageDiscarded)
bin	-inf	0
bin	0	0
bin	1	1
bin	2	0
statistic GridNetwork.node[22].port$o[0].channel messages:histogram
field count 1
field mean 1
field stddev nan
field min 1
field max 1
field sum 1
field sqrsum 1
attr interpolationmode none
attr recordingmode histogram
attr source constant1(messageSent)
bin	-inf	0
bin	0	0
bin	1	1
bin	2	0
par GridNetwork.node[22].port$o[1].channel typename "\"bgpdns.EidChannel\""
par GridNetwork.node[22].port$o[1].channel disabled false
attr mutable ""
par GridNetwork.node[22].port$o[1].channel delay 0.01s
attr mutable ""
attr unit s
statistic GridNetwork.node[22].port$o[1].channel messagesDiscarded:histogram
field count 1
field mean 1
field stddev nan
field min 1
field max 1
field sum 1
field sqrsum 1
attr interpolationmode none
attr recordingmode histogram
attr source constant1(messageDiscarded)
bin	-inf	0
bin	0	0
bin	1	1
bin	2	0
statistic GridNetwork.node[22].port$o[1].channel messages:histogram
field count 1
field mean 1
field stddev nan
field min 1
field max 1
field sum 1
field sqrsum 1
attr interpolationmode none
attr recordingmode histogram
attr source constant1(messageSent)
bin	-inf	0
bin	0	0
bin	1	1
bin	2	0
par GridNetwork.node[23].port$o[0].channel typename "\"bgpdns.EidChannel\""
par GridNetwork.node[23].port$o[0].channel disabled false
attr mutable ""
par GridNetwork.node[23].port$o[0].channel delay 0.01s
attr mutable ""
attr unit s
statistic GridNetwork.node[23].port$o[0].channel messagesDiscarded:histogram
field count 1
field mean 1
field stddev nan
field min 1
field max 1
field sum 1
field sqrsum 1
attr interpolationmode none
attr recordingmode histogram
attr source constant1(messageDiscarded)
bin	-inf	0
bin	0	0
bin	1	1
bin	2	0
statistic GridNetwork.node[23].port$o[0].channel messages:histogram
field count 1
field mean 1
field stddev nan
field min 1
field max 1
field sum 1
field sqrsum 1
attr interpolationmode none
attr recordingmode histogram
attr source constant1(messageSent)
bin	-inf	0
bin	0	0
bin	1	1
bin	2	0
par GridNetwork.node[23].port$o[1].channel typename "\"bgpdns.EidChannel\""
par GridNetwork.node[23].port$o[1].channel disabled false
attr mutable ""
par GridNetwork.node[23].port$o[1].channel delay 0.01s
attr mutable ""
attr unit s
statistic GridNetwork.node[23].port$o[1].channel messagesDiscarded:histogram
field count 1
field mean 1
field stddev nan
field min 1
field max 1
field sum 1
field sqrsum 1
attr interpolationmode none
attr recordingmode histogram
attr source constant1(messageDiscarded)
bin	-inf	0
bin	0	0
bin	1	1
bin	2	0
statistic GridNetwork.node[23].port$o[1].channel messages:histogram
field count 1
field mean 1
field stddev nan
field min 1
field max 1
field sum 1
field sqrsum 1
attr interpolationmode none
attr recordingmode histogram
attr source constant1(messageSent)
bin	-inf	0
bin	0	0
bin	1	1
bin	2	0
par GridNetwork.node[24].port$o[0].channel typename "\"bgpdns.EidChannel\""
par GridNetwork.node[24].port$o[0].channel disabled false
attr mutable ""
par GridNetwork.node[24].port$o[0].channel delay 0.01s
attr mutable ""
attr unit s
statistic GridNetwork.node[24].port$o[0].channel messagesDiscarded:histogram
field count 1
field mean 1
field stddev nan
field min 1
field max 1
field sum 1
field sqrsum 1
attr interpolationmode none
attr recordingmode histogram
attr source constant1(messageDiscarded)
bin	-inf	0
bin	0	0
bin	1	1
bin	2	0
statistic GridNetwork.node[24].port$o[0].channel messages:histogram
field count 1
field mean 1
field stddev nan
field min 1
field max 1
field sum 1
field sqrsum 1
attr interpolationmode none
attr recordingmode histogram
attr source constant1(messageSent)
bin	-inf	0
bin	0	0
bin	1	1
bin	2	0
par GridNetwork.node[24].port$o[1].channel typename "\"bgpdns.EidChannel\""
par GridNetwork.node[24].port$o[1].channel disabled false
attr mutable ""
par GridNetwork.node[24].port$o[1].channel delay 0.01s
attr mutable ""
attr unit s
statistic GridNetwork.node[24].port$o[1].channel messagesDiscarded:histogram
field count 1
field mean 1
field stddev nan
field min 1
field max 1
field sum 1
field sqrsum 1
attr interpolationmode none
attr recordingmode histogram
attr source constant1(messageDiscarded)
bin	-inf	0
bin	0	0
bin	1	1
bin	2	0
statistic GridNetwork.node[24].port$o[1].channel messages:histogram
field count 1
field mean 1
field stddev nan
field min 1
field max 1
field sum 1
field sqrsum 1
attr interpolationmode none
attr recordingmode histogram
attr source constant1(messageSent)
bin	-inf	0
bin	0	0
bin	1	1
bin	2	0
par GridNetwork.node[25].port$o[0].channel typename "\"bgpdns.EidChannel\""
par GridNetwork.node[25].port$o[0].channel disabled false
attr mutable ""
par GridNetwork.node[25].port$o[0].channel delay 0.01s
attr mutable ""
attr unit s
statistic GridNetwork.node[25].port$o[0].channel messagesDiscarded:histogram
field count 1
field mean 1
field stddev nan
field min 1
field max 1
field sum 1
field sqrsum 1
attr interpolationmode none
attr recordingmode histogram
attr source constant1(messageDiscarded)
bin	-inf	0
bin	0	0
bin	1	1
bin	2	0
statistic GridNetwork.node[25].port$o[0].channel messages:histogram
field count 1
field mean 1
field stddev nan
field min 1
field max 1
field sum 1
field sqrsum 1
attr interpolationmode none
attr recordingmode histogram
attr source constant1(messageSent)
bin	-inf	0
bin	0	0
bin	1	1
bin	2	0
par GridNetwork.node[25].port$o[1].channel typename "\"bgpdns.EidChannel\""
par GridNetwork.node[25].port$o[1].channel disabled false
attr mutable ""
par GridNetwork.node[25].port$o[1].channel delay 0.01s
attr mutable ""
attr unit s
statistic GridNetwork.node[25].port$o[1].channel messagesDiscarded:histogram
field count 1
field mean 1
field stddev nan
field min 1
field max 1
field sum 1
field sqrsum 1
attr interpolationmode none
attr recordingmode histogram
attr source constant1(messageDiscarded)
bin	-inf	0
bin	0	0
bin	1	1
bin	2	0
statistic GridNetwork.node[25].port$o[1].channel messages:histogram
field count 1
field mean 1
field stddev nan
field min 1
field max 1
field sum 1
field sqrsum 1
attr interpolationmode none
attr recordingmode histogram
attr source constant1(messageSent)
bin	-inf	0
bin	0	0
bin	1	1
bin	2	0
par GridNetwork.node[26].port$o[0].channel typename "\"bgpdns.EidChannel\""
par GridNetwork.node[26].port$o[0].channel disabled false
attr mutable ""
par GridNetwork.node[26].port$o[0].channel delay 0.01s
attr mutable ""
attr unit s
statistic GridNetwork.node[26].port$o[0].channel messagesDiscarded:histogram
field count 1
field mean 1
field stddev nan
field min 1
field max 1
field sum 1
field sqrsum 1
attr interpolationmode none
attr recordingmode histogram
attr source constant1(messageDiscarded)
bin	-inf	0
bin	0	0
bin	1	1
bin	2	0
statistic GridNetwork.node[26].port$o[0].channel messages:histogram
field count 1
field mean 1
field stddev nan
field min 1
field max 1
field sum 1
field sqrsum 1
attr interpolationmode none
attr recordingmode histogram
attr source constant1(messageSent)
bin	-inf	0
bin	0	0
bin	1	1
bin	2	0
par GridNetwork.node[26].port$o[1].channel typename "\"bgpdns.EidChannel\""
par GridNetwork.node[26].port$o[1].channel disabled false
attr mutable ""
par GridNetwork.node[26].port$o[1].channel delay 0.01s
attr mutable ""
attr unit s
statistic GridNetwork.node[26].port$o[1].channel messagesDiscarded:histogram
field count 1
field mean 1
field stddev nan
field min 1
field max 1
field sum 1
field sqrsum 1
attr interpolationmode none
attr recordingmode histogram
attr source constant1(messageDiscarded)
bin	-inf	0
bin	0	0
bin	1	1
bin	2	0
statistic GridNetwork.node[26].port$o[1].channel messages:histogram
field count 1
field mean 1
field stddev nan
field min 1
field max 1
field sum 1
field sqrsum 1
attr interpolationmode none
attr recordingmode histogram
attr source constant1(messageSent)
bin	-inf	0
bin	0	0
bin	1	1
bin	2	0
par GridNetwork.node[27].port$o[0].channel typename "\"bgpdns.EidChannel\""
par GridNetwork.node[27].port$o[0].channel disabled false
attr mutable ""
par GridNetwork.node[27].port$o[0].channel delay 0.01s
attr mutable ""
attr unit s
statistic GridNetwork.node[27].port$o[0].channel messagesDiscarded:histogram
field count 1
field mean 1
field stddev nan
field min 1
field max 1
field sum 1
field sqrsum 1
attr interpolationmode none
attr recordingmode histogram
attr source constant1(messageDiscarded)
bin	-inf	0
bin	0	0
bin	1	1
bin	2	0
statistic GridNetwork.node[27].port$o[0].channel messages:histogram
field count 1
field mean 1
field stddev nan
field min 1
field max 1
field sum 1
field sqrsum 1
attr interpolationmode none
attr recordingmode histogram
attr source constant1(messageSent)
bin	-inf	0
bin	0	0
bin	1	1
bin	2	0
par GridNetwork.node[27].port$o[1].channel typename "\"bgpdns.EidChannel\""
par GridNetwork.node[27].port$o[1].channel disabled false
attr mutable ""
par GridNetwork.node[27].port$o[1].channel delay 0.01s
attr mutable ""
attr unit s
statistic GridNetwork.node[27].port$o[1].channel messagesDiscarded:histogram
field count 1
field mean 1
field stddev nan
field min 1
field max 1
field sum 1
field sqrsum 1
attr interpolationmode none
attr recordingmode histogram
attr source constant1(messageDiscarded)
bin	-inf	0
bin	0	0
bin	1	1
bin	2	0
statistic GridNetwork.node[27].port$o[1].channel messages:histogram
field count 1
field mean 1
field stddev nan
field min 1
field max 1
field sum 1
field sqrsum 1
attr interpolationmode none
attr recordingmode histogram
attr source constant1(messageSent)
bin	-inf	0
bin	0	0
bin	1	1
bin	2	0
par GridNetwork.node[28].port$o[0].channel typename "\"bgpdns.EidChannel\""
par GridNetwork.node[28].port$o[0].channel disabled false
attr mutable ""
par GridNetwork.node[28].port$o[0].channel delay 0.01s
attr mutable ""
attr unit s
statistic GridNetwork.node[28].port$o[0].channel messagesDiscarded:histogram
field count 1
field mean 1
field stddev nan
field min 1
field max 1
field sum 1
field sqrsum 1
attr interpolationmode none
attr recordingmode histogram
attr source constant1(messageDiscarded)
bin	-inf	0
bin	0	0
bin	1	1
bin	2	0
statistic GridNetwork.node[28].port$o[0].channel messages:histogram
field count 1
field mean 1
field stddev nan
field min 1
field max 1
field sum 1
field sqrsum 1
attr interpolationmode none
attr recordingmode histogram
attr source constant1(messageSent)
bin	-inf	0
bin	0	0
bin	1	1
bin	2	0
par GridNetwork.node[28].port$o[1].channel typename "\"bgpdns.EidChannel\""
par GridNetwork.node[28].port$o[1].channel disabled false
attr mutable ""
par GridNetwork.node[28].port$o[1].channel delay 0.01s
attr mutable ""
attr unit s
statistic GridNetwork.node[28].port$o[1].channel messagesDiscarded:histogram
field count 1
field mean 1
field stddev nan
field min 1
field max 1
field sum 1
field sqrsum 1
attr interpolationmode none
attr recordingmode histogram
attr source constant1(messageDiscarded)
bin	-inf	0
bin	0	0
bin	1	1
bin	2	0
statistic GridNetwork.node[28].port$o[1].channel messages:histogram
field count 1
field mean 1
field stddev nan
field min 1
field max 1
field sum 1
field sqrsum 1
attr interpolationmode none
attr recordingmode histogram
attr source constant1(messageSent)
bin	-inf	0
bin	0	0
bin	1	1
bin	2	0
par GridNetwork.node[29].port$o[0].channel typename "\"bgpdns.EidChannel\""
par GridNetwork.node[29].port$o[0].channel disabled false
attr mutable ""
par GridNetwork.node[29].port$o[0].channel delay 0.01s
attr mutable ""
attr unit s
statistic GridNetwork.node[29].port$o[0].channel messagesDiscarded:histogram
field count 1
field mean 1
field stddev nan
field min 1
field max 1
field sum 1
field sqrsum 1
attr interpolationmode none
attr recordingmode histogram
attr source constant1(messageDiscarded)
bin	-inf	0
bin	0	0
bin	1	1
bin	2	0
statistic GridNetwork.node[29].port$o[0].channel messages:histogram
field count 1
field mean 1
field stddev nan
field min 1
field max 1
field sum 1
field sqrsum 1
attr interpolationmode none
attr recordingmode histogram
attr source constant1(messageSent)
bin	-inf	0
bin	0	0
bin	1	1
bin	2	0
par GridNetwork.node[30].port$o[0].channel typename "\"bgpdns.EidChannel\""
par GridNetwork.node[30].port$o[0].channel disabled false
attr mutable ""
par GridNetwork.node[30].port$o[0].channel delay 0.01s
attr mutable ""
attr unit s
statistic GridNetwork.node[30].port$o[0].channel messagesDiscarded:histogram
field count 1
field mean 1
field stddev nan
field min 1
field max 1
field sum 1
field sqrsum 1
attr interpolationmode none
attr recordingmode histogram
attr source constant1(messageDiscarded)
bin	-inf	0
bin	0	0
bin	1	1
bin	2	0
statistic GridNetwork.node[30].port$o[0].channel messages:histogram
field count 1
field mean 1
field stddev nan
field min 1
field max 1
field sum 1
field sqrsum 1
attr interpolationmode none
attr recordingmode histogram
attr source constant1(messageSent)
bin	-inf	0
bin	0	0
bin	1	1
bin	2	0
par GridNetwork.node[31].port$o[0].channel typename "\"bgpdns.EidChannel\""
par GridNetwork.node[31].port$o[0].channel disabled false
attr mutable ""
par GridNetwork.node[31].port$o[0].channel delay 0.01s
attr mutable ""
attr unit s
statistic GridNetwork.node[31].port$o[0].channel messagesDiscarded:histogram
field count 1
field mean 1
field stddev nan
field min 1
field max 1
field sum 1
field sqrsum 1
attr interpolationmode none
attr recordingmode histogram
attr source constant1(messageDiscarded)
bin	-inf	0
bin	0	0
bin	1	1
bin	2	0
statistic GridNetwork.node[31].port$o[0].channel messages:histogram
field count 1
field mean 1
field stddev nan
field min 1
field max 1
field sum 1
field sqrsum 1
attr interpolationmode none
attr recordingmode histogram
attr source constant1(messageSent)
bin	-inf	0
bin	0	0
bin	1	1
bin	2	0
par GridNetwork.node[31].port$o[1].channel typename "\"bgpdns.EidChannel\""
par GridNetwork.node[31].port$o[1].channel disabled false
attr mutable ""
par GridNetwork.node[31].port$o[1].channel delay 0.01s
attr mutable ""
attr unit s
statistic GridNetwork.node[31].port$o[1].channel messagesDiscarded:histogram
field count 1
field mean 1
field stddev nan
field min 1
field max 1
field sum 1
field sqrsum 1
attr interpolationmode none
attr recordingmode histogram
attr source constant1(messageDiscarded)
bin	-inf	0
bin	0	0
bin	1	1
bin	2	0
statistic GridNetwork.node[31].port$o[1].channel messages:histogram
field count 1
field mean 1
field stddev nan
field min 1
field max 1
field sum 1
field sqrsum 1
attr interpolationmode none
attr recordingmode histogram
attr source constant1(messageSent)
bin	-inf	0
bin	0	0
bin	1	1
bin	2	0
par GridNetwork.node[32].port$o[0].channel typename "\"bgpdns.EidChannel\""
par GridNetwork.node[32].port$o[0].channel disabled false
attr mutable ""
par GridNetwork.node[32].port$o[0].channel delay 0.01s
attr mutable ""
attr unit s
statistic GridNetwork.node[32].port$o[0].channel messagesDiscarded:histogram
field count 1
field mean 1
field stddev nan
field min 1
field max 1
field sum 1
field sqrsum 1
attr interpolationmode none
attr recordingmode histogram
attr source constant1(messageDiscarded)
bin	-inf	0
bin	0	0
bin	1	1
bin	2	0
statistic GridNetwork.node[32].port$o[0].channel messages:histogram
field count 1
field mean 1
field stddev nan
field min 1
field max 1
field sum 1
field sqrsum 1
attr interpolationmode none
attr recordingmode histogram
attr source constant1(messageSent)
bin	-inf	0
bin	0	0
bin	1	1
bin	2	0
par GridNetwork.node[32].port$o[1].channel typename "\"bgpdns.EidChannel\""
par GridNetwork.node[32].port$o[1].channel disabled false
attr mutable ""
par GridNetwork.node[32].port$o[1].channel delay 0.01s
attr mutable ""
attr unit s
statistic GridNetwork.node[32].port$o[1].channel messagesDiscarded:histogram
field count 1
field mean 1
field stddev nan
field min 1
field max 1
field sum 1
field sqrsum 1
attr interpolationmode none
attr recordingmode histogram
attr source constant1(messageDiscarded)
bin	-inf	0
bin	0	0
bin	1	1
bin	2	0
statistic GridNetwork.node[32].port$o[1].channel messages:histogram
field count 1
field mean 1
field stddev nan
field min 1
field max 1
field sum 1
field sqrsum 1
attr interpolationmode none
attr recordingmode histogram
attr source constant1(messageSent)
bin	-inf	0
bin	0	0
bin	1	1
bin	2	0
par GridNetwork.node[33].port$o[0].channel typename "\"bgpdns.EidChannel\""
par GridNetwork.node[33].port$o[0].channel disabled false
attr mutable ""
par GridNetwork.node[33].port$o[0].channel delay 0.01s
attr mutable ""
attr unit s
statistic GridNetwork.node[33].port$o[0].channel messagesDiscarded:histogram
field count 1
field mean 1
field stddev nan
field min 1
field max 1
field sum 1
field sqrsum 1
attr interpolationmode none
attr recordingmode histogram
attr source constant1(messageDiscarded)
bin	-inf	0
bin	0	0
bin	1	1
bin	2	0
statistic GridNetwork.node[33].port$o[0].channel messages:histogram
field count 1
field mean 1
field stddev nan
field min 1
field max 1
field sum 1
field sqrsum 1
attr interpolationmode none
attr recordingmode histogram
attr source constant1(messageSent)
bin	-inf	0
bin	0	0
bin	1	1
bin	2	0
par GridNetwork.node[33].port$o[1].channel typename "\"bgpdns.EidChannel\""
par GridNetwork.node[33].port$o[1].channel disabled false
attr mutable ""
par GridNetwork.node[33].port$o[1].channel delay 0.01s
attr mutable ""
attr unit s
statistic GridNetwork.node[33].port$o[1].channel messagesDiscarded:histogram
field count 1
field mean 1
field stddev nan
field min 1
field max 1
field sum 1
field sqrsum 1
attr interpolationmode none
attr recordingmode histogram
attr source constant1(messageDiscarded)
bin	-inf	0
bin	0	0
bin	1	1
bin	2	0
statistic GridNetwork.node[33].port$o[1].channel messages:histogram
field count 1
field mean 1
field stddev nan
field min 1
field max 1
field sum 1
field sqrsum 1
attr interpolationmode none
attr recordingmode histogram
attr source constant1(messageSent)
bin	-inf	0
bin	0	0
bin	1	1
bin	2	0
par GridNetwork.node[34].port$o[0].channel typename "\"bgpdns.EidChannel\""
par GridNetwork.node[34].port$o[0].channel disabled false
attr mutable ""
par GridNetwork.node[34].port$o[0].channel delay 0.01s
attr mutable ""
attr unit s
statistic GridNetwork.node[34].port$o[0].channel messagesDiscarded:histogram
field count 1
field mean 1
field stddev nan
field min 1
field max 1
field sum 1
field sqrsum 1
attr interpolationmode none
attr recordingmode histogram
attr source constant1(messageDiscarded)
bin	-inf	0
bin	0	0
bin	1	1
bin	2	0
statistic GridNetwork.node[34].port$o[0].channel messages:histogram
field count 1
field mean 1
field stddev nan
field min 1
field max 1
field sum 1
field sqrsum 1
attr interpolationmode none
attr recordingmode histogram
attr source constant1(messageSent)
bin	-inf	0
bin	0	0
bin	1	1
bin	2	0
par GridNetwork.node[34].port$o[1].channel typename "\"bgpdns.EidChannel\""
par GridNetwork.node[34].port$o[1].channel disabled false
attr mutable ""
par GridNetwork.node[34].port$o[1].channel delay 0.01s
attr mutable ""
attr unit s
statistic GridNetwork.node[34].port$o[1].channel messagesDiscarded:histogram
field count 1
field mean 1
field stddev nan
field min 1
field max 1
field sum 1
field sqrsum 1
attr interpolationmode none
attr recordingmode histogram
attr source constant1(messageDiscarded)
bin	-inf	0
bin	0	0
bin	1	1
bin	2	0
statistic GridNetwork.node[34].port$o[1].channel messages:histogram
field count 1
field mean 1
field stddev nan
field min 1
field max 1
field sum 1
field sqrsum 1
attr interpolationmode none
attr recordingmode histogram
attr source constant1(messageSent)
bin	-inf	0
bin	0	0
bin	1	1
bin	2	0
par GridNetwork.node[35].port$o[0].channel typename "\"bgpdns.EidChannel\""
par GridNetwork.node[35].port$o[0].channel disabled false
attr mutable ""
par GridNetwork.node[35].port$o[0].channel delay 0.01s
attr mutable ""
attr unit s
statistic GridNetwork.node[35].port$o[0].channel messagesDiscarded:histogram
field count 1
field mean 1
field stddev nan
field min 1
field max 1
field sum 1
field sqrsum 1
attr interpolationmode none
attr recordingmode histogram
attr source constant1(messageDiscarded)
bin	-inf	0
bin	0	0
bin	1	1
bin	2	0
statistic GridNetwork.node[35].port$o[0].channel messages:histogram
field count 1
field mean 1
field stddev nan
field min 1
field max 1
field sum 1
field sqrsum 1
attr interpolationmode none
attr recordingmode histogram
attr source constant1(messageSent)
bin	-inf	0
bin	0	0
bin	1	1
bin	2	0
par GridNetwork.node[35].port$o[1].channel typename "\"bgpdns.EidChannel\""
par GridNetwork.node[35].port$o[1].channel disabled false
attr mutable ""
par GridNetwork.node[35].port$o[1].channel delay 0.01s
attr mutable ""
attr unit s
statistic GridNetwork.node[35].port$o[1].channel messagesDiscarded:histogram
field count 1
field mean 1
field stddev nan
field min 1
field max 1
field sum 1
field sqrsum 1
attr interpolationmode none
attr recordingmode histogram
attr source constant1(messageDiscarded)
bin	-inf	0
bin	0	0
bin	1	1
bin	2	0
statistic GridNetwork.node[35].port$o[1].channel messages:histogram
field count 1
field mean 1
field stddev nan
field min 1
field max 1
field sum 1
field sqrsum 1
attr interpolationmode none
attr recordingmode histogram
attr source constant1(messageSent)
bin	-inf	0
bin	0	0
bin	1	1
bin	2	0
par GridNetwork.node[36].port$o[0].channel typename "\"bgpdns.EidChannel\""
par GridNetwork.node[36].port$o[0].channel disabled false
attr mutable ""
par GridNetwork.node[36].port$o[0].channel delay 0.01s
attr mutable ""
attr unit s
statistic GridNetwork.node[36].port$o[0].channel messagesDiscarded:histogram
field count 1
field mean 1
field stddev nan
field min 1
field max 1
field sum 1
field sqrsum 1
attr interpolationmode none
attr recordingmode histogram
attr source constant1(messageDiscarded)
bin	-inf	0
bin	0	0
bin	1	1
bin	2	0
statistic GridNetwork.node[36].port$o[0].channel messages:histogram
field count 1
field mean 1
field stddev nan
field min 1
field max 1
field sum 1
field sqrsum 1
attr interpolationmode none
attr recordingmode histogram
attr source constant1(messageSent)
bin	-inf	0
bin	0	0
bin	1	1
bin	2	0
par GridNetwork.node[36].port$o[1].channel typename "\"bgpdns.EidChannel\""
par GridNetwork.node[36].port$o[1].channel disabled false
attr mutable ""
par GridNetwork.node[36].port$o[1].channel delay 0.01s
attr mutable ""
attr unit s
statistic GridNetwork.node[36].port$o[1].channel messagesDiscarded:histogram
field count 1
field mean 1
field stddev nan
field min 1
field max 1
field sum 1
field sqrsum 1
attr interpolationmode none
attr recordingmode histogram
attr source constant1(messageDiscarded)
bin	-inf	0
bin	0	0
bin	1	1
bin	2	0
statistic GridNetwork.node[36].port$o[1].channel messages:histogram
field count 1
field mean 1
field stddev nan
field min 1
field max 1
field sum 1
field sqrsum 1
attr interpolationmode none
attr recordingmode histogram
attr source constant1(messageSent)
bin	-inf	0
bin	0	0
bin	1	1
bin	2	0
par GridNetwork.node[37].port$o[0].channel typename "\"bgpdns.EidChannel\""
par GridNetwork.node[37].port$o[0].channel disabled false
attr mutable ""
par GridNetwork.node[37].port$o[0].channel delay 0.01s
attr mutable ""
attr unit s
statistic GridNetwork.node[37].port$o[0].channel messagesDiscarded:histogram
field count 1
field mean 1
field stddev nan
field min 1
field max 1
field sum 1
field sqrsum 1
attr interpolationmode none
attr recordingmode histogram
attr source constant1(messageDiscarded)
bin	-inf	0
bin	0	0
bin	1	1
bin	2	0
statistic GridNetwork.node[37].port$o[0].channel messages:histogram
field count 1
field mean 1
field stddev nan
field min 1
field max 1
field sum 1
field sqrsum 1
attr interpolationmode none
attr recordingmode histogram
attr source constant1(messageSent)
bin	-inf	0
bin	0	0
bin	1	1
bin	2	0
par GridNetwork.node[37].port$o[1].channel typename "\"bgpdns.EidChannel\""
par GridNetwork.node[37].port$o[1].channel disabled false
attr mutable ""
par GridNetwork.node[37].port$o[1].channel delay 0.01s
attr mutable ""
attr unit s
statistic GridNetwork.node[37].port$o[1].channel messagesDiscarded:histogram
field count 1
field mean 1
field stddev nan
field min 1
field max 1
field sum 1
field sqrsum 1
attr interpolationmode none
attr recordingmode histogram
attr source constant1(messageDiscarded)
bin	-inf	0
bin	0	0
bin	1	1
bin	2	0
statistic GridNetwork.node[37].port$o[1].channel messages:histogram
field count 1
field mean 1
field stddev nan
field min 1
field max 1
field sum 1
field sqrsum 1
attr interpolationmode none
attr recordingmode histogram
attr source constant1(messageSent)
bin	-inf	0
bin	0	0
bin	1	1
bin	2	0
par GridNetwork.node[38].port$o[0].channel typename "\"bgpdns.EidChannel\""
par GridNetwork.node[38].port$o[0].channel disabled false
attr mutable ""
par GridNetwork.node[38].port$o[0].channel delay 0.01s
attr mutable ""
attr unit s
statistic GridNetwork.node[38].port$o[0].channel messagesDiscarded:histogram
field count 1
field mean 1
field stddev nan
field min 1
field max 1
field sum 1
field sqrsum 1
attr interpolationmode none
attr recordingmode histogram
attr source constant1(messageDiscarded)
bin	-inf	0
bin	0	0
bin	1	1
bin	2	0
statistic GridNetwork.node[38].port$o[0].channel messages:histogram
field count 1
field mean 1
field stddev nan
field min 1
field max 1
field sum 1
field sqrsum 1
attr interpolationmode none
attr recordingmode histogram
attr source constant1(messageSent)
bin	-inf	0
bin	0	0
bin	1	1
bin	2	0
par GridNetwork.node[38].port$o[1].channel typename "\"bgpdns.EidChannel\""
par GridNetwork.node[38].port$o[1].channel disabled false
attr mutable ""
par GridNetwork.node[38].port$o[1].channel delay 0.01s
attr mutable ""
attr unit s
statistic GridNetwork.node[38].port$o[1].channel messagesDiscarded:histogram
field count 1
field mean 1
field stddev nan
field min 1
field max 1
field sum 1
field sqrsum 1
attr interpolationmode none
attr recordingmode histogram
attr source constant1(messageDiscarded)
bin	-inf	0
bin	0	0
bin	1	1
bin	2	0
statistic GridNetwork.node[38].port$o[1].channel messages:histogram
field count 1
field mean 1
field stddev nan
field min 1
field max 1
field sum 1
field sqrsum 1
attr interpolationmode none
attr recordingmode histogram
attr source constant1(messageSent)
bin	-inf	0
bin	0	0
bin	1	1
bin	2	0
par GridNetwork.node[39].port$o[0].channel typename "\"bgpdns.EidChannel\""
par GridNetwork.node[39].port$o[0].channel disabled false
attr mutable ""
par GridNetwork.node[39].port$o[0].channel delay 0.01s
attr mutable ""
attr unit s
statistic GridNetwork.node[39].port$o[0].channel messagesDiscarded:histogram
field count 1
field mean 1
field stddev nan
field min 1
field max 1
field sum 1
field sqrsum 1
attr interpolationmode none
attr recordingmode histogram
attr source constant1(messageDiscarded)
bin	-inf	0
bin	0	0
bin	1	1
bin	2	0
statistic GridNetwork.node[39].port$o[0].channel messages:histogram
field count 1
field mean 1
field stddev nan
field min 1
field max 1
field sum 1
field sqrsum 1
attr interpolationmode none
attr recordingmode histogram
attr source constant1(messageSent)
bin	-inf	0
bin	0	0
bin	1	1
bin	2	0
par GridNetwork.node[40].port$o[0].channel typename "\"bgpdns.EidChannel\""
par GridNetwork.node[40].port$o[0].channel disabled false
attr mutable ""
par GridNetwork.node[40].port$o[0].channel delay 0.01s
attr mutable ""
attr unit s
statistic GridNetwork.node[40].port$o[0].channel messagesDiscarded:histogram
field count 1
field mean 1
field stddev nan
field min 1
field max 1
field sum 1
field sqrsum 1
attr interpolationmode none
attr recordingmode histogram
attr source constant1(messageDiscarded)
bin	-inf	0
bin	0	0
bin	1	1
bin	2	0
statistic GridNetwork.node[40].port$o[0].channel messages:histogram
field count 1
field mean 1
field stddev nan
field min 1
field max 1
field sum 1
field sqrsum 1
attr interpolationmode none
attr recordingmode histogram
attr source constant1(messageSent)
bin	-inf	0
bin	0	0
bin	1	1
bin	2	0
par GridNetwork.node[41].port$o[0].channel typename "\"bgpdns.EidChannel\""
par GridNetwork.node[41].port$o[0].channel disabled false
attr mutable ""
par GridNetwork.node[41].port$o[0].channel delay 0.01s
attr mutable ""
attr unit s
statistic GridNetwork.node[41].port$o[0].channel messagesDiscarded:histogram
field count 1
field mean 1
field stddev nan
field min 1
field max 1
field sum 1
field sqrsum 1
attr interpolationmode none
attr recordingmode histogram
attr source constant1(messageDiscarded)
bin	-inf	0
bin	0	0
bin	1	1
bin	2	0
statistic GridNetwork.node[41].port$o[0].channel messages:histogram
field count 1
field mean 1
field stddev nan
field min 1
field max 1
field sum 1
field sqrsum 1
attr interpolationmode none
attr recordingmode histogram
attr source constant1(messageSent)
bin	-inf	0
bin	0	0
bin	1	1
bin	2	0
par GridNetwork.node[41].port$o[1].channel typename "\"bgpdns.EidChannel\""
par GridNetwork.node[41].port$o[1].channel disabled false
attr mutable ""
par GridNetwork.node[41].port$o[1].channel delay 0.01s
attr mutable ""
attr unit s
statistic GridNetwork.node[41].port$o[1].channel messagesDiscarded:histogram
field count 1
field mean 1
field stddev nan
field min 1
field max 1
field sum 1
field sqrsum 1
attr interpolationmode none
attr recordingmode histogram
attr source constant1(messageDiscarded)
bin	-inf	0
bin	0	0
bin	1	1
bin	2	0
statistic GridNetwork.node[41].port$o[1].channel messages:histogram
field count 1
field mean 1
field stddev nan
field min 1
field max 1
field sum 1
field sqrsum 1
attr interpolationmode none
attr recordingmode histogram
attr source constant1(messageSent)
bin	-inf	0
bin	0	0
bin	1	1
bin	2	0
par GridNetwork.node[42].port$o[0].channel typename "\"bgpdns.EidChannel\""
par GridNetwork.node[42].port$o[0].channel disabled false
attr mutable ""
par GridNetwork.node[42].port$o[0].channel delay 0.01s
attr mutable ""
attr unit s
statistic GridNetwork.node[42].port$o[0].channel messagesDiscarded:histogram
field count 1
field mean 1
field stddev nan
field min 1
field max 1
field sum 1
field sqrsum 1
attr interpolationmode none
attr recordingmode histogram
attr source constant1(messageDiscarded)
bin	-inf	0
bin	0	0
bin	1	1
bin	2	0
statistic GridNetwork.node[42].port$o[0].channel messages:histogram
field count 1
field mean 1
field stddev nan
field min 1
field max 1
field sum 1
field sqrsum 1
attr interpolationmode none
attr recordingmode histogram
attr source constant1(messageSent)
bin	-inf	0
bin	0	0
bin	1	1
bin	2	0
par GridNetwork.node[42].port$o[1].channel typename "\"bgpdns.EidChannel\""
par GridNetwork.node[42].port$o[1].channel disabled false
attr mutable ""
par GridNetwork.node[42].port$o[1].channel delay 0.01s
attr mutable ""
attr unit s
statistic GridNetwork.node[42].port$o[1].channel messagesDiscarded:histogram
field count 1
field mean 1
field stddev nan
field min 1
field max 1
field sum 1
field sqrsum 1
attr interpolationmode none
attr recordingmode histogram
attr source constant1(messageDiscarded)
bin	-inf	0
bin	0	0
bin	1	1
bin	2	0
statistic GridNetwork.node[42].port$o[1].channel messages:histogram
field count 1
field mean 1
field stddev nan
field min 1
field max 1
field sum 1
field sqrsum 1
attr interpolationmode none
attr recordingmode histogram
attr source constant1(messageSent)
bin	-inf	0
bin	0	0
bin	1	1
bin	2	0
par GridNetwork.node[43].port$o[0].channel typename "\"bgpdns.EidChannel\""
par GridNetwork.node[43].port$o[0].channel disabled false
attr mutable ""
par GridNetwork.node[43].port$o[0].channel delay 0.01s
attr mutable ""
attr unit s
statistic GridNetwork.node[43].port$o[0].channel messagesDiscarded:histogram
field count 1
field mean 1
field stddev nan
field min 1
field max 1
field sum 1
field sqrsum 1
attr interpolationmode none
attr recordingmode histogram
attr source constant1(messageDiscarded)
bin	-inf	0
bin	0	0
bin	1	1
bin	2	0
statistic GridNetwork.node[43].port$o[0].channel messages:histogram
field count 1
field mean 1
field stddev nan
field min 1
field max 1
field sum 1
field sqrsum 1
attr interpolationmode none
attr recordingmode histogram
attr source constant1(messageSent)
bin	-inf	0
bin	0	0
bin	1	1
bin	2	0
par GridNetwork.node[43].port$o[1].channel typename "\"bgpdns.EidChannel\""
par GridNetwork.node[43].port$o[1].channel disabled false
attr mutable ""
par GridNetwork.node[43].port$o[1].channel delay 0.01s
attr mutable ""
attr unit s
statistic GridNetwork.node[43].port$o[1].channel messagesDiscarded:histogram
field count 1
field mean 1
field stddev nan
field min 1
field max 1
field sum 1
field sqrsum 1
attr interpolationmode none
attr recordingmode histogram
attr source constant1(messageDiscarded)
bin	-inf	0
bin	0	0
bin	1	1
bin	2	0
statistic GridNetwork.node[43].port$o[1].channel messages:histogram
field count 1
field mean 1
field stddev nan
field min 1
field max 1
field sum 1
field sqrsum 1
attr interpolationmode none
attr recordingmode histogram
attr source constant1(messageSent)
bin	-inf	0
bin	0	0
bin	1	1
bin	2	0
par GridNetwork.node[44].port$o[0].channel typename "\"bgpdns.EidChannel\""
par GridNetwork.node[44].port$o[0].channel disabled false
attr mutable ""
par GridNetwork.node[44].port$o[0].channel delay 0.01s
attr mutable ""
attr unit s
statistic GridNetwork.node[44].port$o[0].channel messagesDiscarded:histogram
field count 1
field mean 1
field stddev nan
field min 1
field max 1
field sum 1
field sqrsum 1
attr interpolationmode none
attr recordingmode histogram
attr source constant1(messageDiscarded)
bin	-inf	0
bin	0	0
bin	1	1
bin	2	0
statistic GridNetwork.node[44].port$o[0].channel messages:histogram
field count 1
field mean 1
field stddev nan
field min 1
field max 1
field sum 1
field sqrsum 1
attr interpolationmode none
attr recordingmode histogram
attr source constant1(messageSent)
bin	-inf	0
bin	0	0
bin	1	1
bin	2	0
par GridNetwork.node[44].port$o[1].channel typename "\"bgpdns.EidChannel\""
par GridNetwork.node[44].port$o[1].channel disabled false
attr mutable ""
par GridNetwork.node[44].port$o[1].channel delay 0.01s
attr mutable ""
attr unit s
statistic GridNetwork.node[44].port$o[1].channel messagesDiscarded:histogram
field count 1
field mean 1
field stddev nan
field min 1
field max 1
field sum 1
field sqrsum 1
attr interpolationmode none
attr recordingmode histogram
attr source constant1(messageDiscarded)
bin	-inf	0
bin	0	0
bin	1	1
bin	2	0
statistic GridNetwork.node[44].port$o[1].channel messages:histogram
field count 101
field mean 1
field stddev 0
field min 1
field max 1
field sum 101
field sqrsum 101
attr interpolationmode none
attr recordingmode histogram
attr source constant1(messageSent)
bin	-inf	0
bin	0	0
bin	1	101
bin	2	0
par GridNetwork.node[45].port$o[0].channel typename "\"bgpdns.EidChannel\""
par GridNetwork.node[45].port$o[0].channel disabled false
attr mutable ""
par GridNetwork.node[45].port$o[0].channel delay 0.01s
attr mutable ""
attr unit s
statistic GridNetwork.node[45].port$o[0].channel messagesDiscarded:histogram
field count 1
field mean 1
field stddev nan
field min 1
field max 1
field sum 1
field sqrsum 1
attr interpolationmode none
attr recordingmode histogram
attr source constant1(messageDiscarded)
bin	-inf	0
bin	0	0
bin	1	1
bin	2	0
statistic GridNetwork.node[45].port$o[0].channel messages:histogram
field count 101
field mean 1
field stddev 0
field min 1
field max 1
field sum 101
field sqrsum 101
attr interpolationmode none
attr recordingmode histogram
attr source constant1(messageSent)
bin	-inf	0
bin	0	0
bin	1	101
bin	2	0
par GridNetwork.node[45].port$o[1].channel typename "\"bgpdns.EidChannel\""
par GridNetwork.node[45].port$o[1].channel disabled false
attr mutable ""
par GridNetwork.node[45].port$o[1].channel delay 0.01s
attr mutable ""
attr unit s
statistic GridNetwork.node[45].port$o[1].channel messagesDiscarded:histogram
field count 1
field mean 1
field stddev nan
field min 1
field max 1
field sum 1
field sqrsum 1
attr interpolationmode none
attr recordingmode histogram
attr source constant1(messageDiscarded)
bin	-inf	0
bin	0	0
bin	1	1
bin	2	0
statistic GridNetwork.node[45].port$o[1].channel messages:histogram
field count 1
field mean 1
field stddev nan
field min 1
field max 1
field sum 1
field sqrsum 1
attr interpolationmode none
attr recordingmode histogram
attr source constant1(messageSent)
bin	-inf	0
bin	0	0
bin	1	1
bin	2	0
par GridNetwork.node[46].port$o[0].channel typename "\"bgpdns.EidChannel\""
par GridNetwork.node[46].port$o[0].channel disabled false
attr mutable ""
par GridNetwork.node[46].port$o[0].channel delay 0.01s
attr mutable ""
attr unit s
statistic GridNetwork.node[46].port$o[0].channel messagesDiscarded:histogram
field count 1
field mean 1
field stddev nan
field min 1
field max 1
field sum 1
field sqrsum 1
attr interpolationmode none
attr recordingmode histogram
attr source constant1(messageDiscarded)
bin	-inf	0
bin	0	0
bin	1	1
bin	2	0
statistic GridNetwork.node[46].port$o[0].channel messages:histogram
field count 1
field mean 1
field stddev nan
field min 1
field max 1
field sum 1
field sqrsum 1
attr interpolationmode none
attr recordingmode histogram
attr source constant1(messageSent)
bin	-inf	0
bin	0	0
bin	1	1
bin	2	0
par GridNetwork.node[46].port$o[1].channel typename "\"bgpdns.EidChannel\""
par GridNetwork.node[46].port$o[1].channel disabled false
attr mutable ""
par GridNetwork.node[46].port$o[1].channel delay 0.01s
attr mutable ""
attr unit s
statistic GridNetwork.node[46].port$o[1].channel messagesDiscarded:histogram
field count 1
field mean 1
field stddev nan
field min 1
field max 1
field sum 1
field sqrsum 1
attr interpolationmode none
attr recordingmode histogram
attr source constant1(messageDiscarded)
bin	-inf	0
bin	0	0
bin	1	1
bin	2	0
statistic GridNetwork.node[46].port$o[1].channel messages:histogram
field count 1
field mean 1
field stddev nan
field min 1
field max 1
field sum 1
field sqrsum 1
attr interpolationmode none
attr recordingmode histogram
attr source constant1(messageSent)
bin	-inf	0
bin	0	0
bin	1	1
bin	2	0
par GridNetwork.node[47].port$o[0].channel typename "\"bgpdns.EidChannel\""
par GridNetwork.node[47].port$o[0].channel disabled false
attr mutable ""
par GridNetwork.node[47].port$o[0].channel delay 0.01s
attr mutable ""
attr unit s
statistic GridNetwork.node[47].port$o[0].channel messagesDiscarded:histogram
field count 1
field mean 1
field stddev nan
field min 1
field max 1
field sum 1
field sqrsum 1
attr interpolationmode none
attr recordingmode histogram
attr source constant1(messageDiscarded)
bin	-inf	0
bin	0	0
bin	1	1
bin	2	0
statistic GridNetwork.node[47].port$o[0].channel messages:histogram
field count 1
field mean 1
field stddev nan
field min 1
field max 1
field sum 1
field sqrsum 1
attr interpolationmode none
attr recordingmode histogram
attr source constant1(messageSent)
bin	-inf	0
bin	0	0
bin	1	1
bin	2	0
par GridNetwork.node[47].port$o[1].channel typename "\"bgpdns.EidChannel\""
par GridNetwork.node[47].port$o[1].channel disabled false
attr mutable ""
par GridNetwork.node[47].port$o[1].channel delay 0.01s
attr mutable ""
attr unit s
statistic GridNetwork.node[47].port$o[1].channel messagesDiscarded:histogram
field count 1
field mean 1
field stddev nan
field min 1
field max 1
field sum 1
field sqrsum 1
attr interpolationmode none
attr recordingmode histogram
attr source constant1(messageDiscarded)
bin	-inf	0
bin	0	0
bin	1	1
bin	2	0
statistic GridNetwork.node[47].port$o[1].channel messages:histogram
field count 1
field mean 1
field stddev nan
field min 1
field max 1
field sum 1
field sqrsum 1
attr interpolationmode none
attr recordingmode histogram
attr source constant1(messageSent)
bin	-inf	0
bin	0	0
bin	1	1
bin	2	0
par GridNetwork.node[48].port$o[0].channel typename "\"bgpdns.EidChannel\""
par GridNetwork.node[48].port$o[0].channel disabled false
attr mutable ""
par GridNetwork.node[48].port$o[0].channel delay 0.01s
attr mutable ""
attr unit s
statistic GridNetwork.node[48].port$o[0].channel messagesDiscarded:histogram
field count 1
field mean 1
field stddev nan
field min 1
field max 1
field sum 1
field sqrsum 1
attr interpolationmode none
attr recordingmode histogram
attr source constant1(messageDiscarded)
bin	-inf	0
bin	0	0
bin	1	1
bin	2	0
statistic GridNetwork.node[48].port$o[0].channel messages:histogram
field count 1
field mean 1
field stddev nan
field min 1
field max 1
field sum 1
field sqrsum 1
attr interpolationmode none
attr recordingmode histogram
attr source constant1(messageSent)
bin	-inf	0
bin	0	0
bin	1	1
bin	2	0
par GridNetwork.node[48].port$o[1].channel typename "\"bgpdns.EidChannel\""
par GridNetwork.node[48].port$o[1].channel disabled false
attr mutable ""
par GridNetwork.node[48].port$o[1].channel delay 0.01s
attr mutable ""
attr unit s
statistic GridNetwork.node[48].port$o[1].channel messagesDiscarded:histogram
field count 1
field mean 1
field stddev nan
field min 1
field max 1
field sum 1
field sqrsum 1
attr interpolationmode none
attr recordingmode histogram
attr source constant1(messageDiscarded)
bin	-inf	0
bin	0	0
bin	1	1
bin	2	0
statistic GridNetwork.node[48].port$o[1].channel messages:histogram
field count 1
field mean 1
field stddev nan
field min 1
field max 1
field sum 1
field sqrsum 1
attr interpolationmode none
attr recordingmode histogram
attr source constant1(messageSent)
bin	-inf	0
bin	0	0
bin	1	1
bin	2	0
par GridNetwork.node[49].port$o[0].channel typename "\"bgpdns.EidChannel\""
par GridNetwork.node[49].port$o[0].channel disabled false
attr mutable ""
par GridNetwork.node[49].port$o[0].channel delay 0.01s
attr mutable ""
attr unit s
statistic GridNetwork.node[49].port$o[0].channel messagesDiscarded:histogram
field count 1
field mean 1
field stddev nan
field min 1
field max 1
field sum 1
field sqrsum 1
attr interpolationmode none
attr recordingmode histogram
attr source constant1(messageDiscarded)
bin	-inf	0
bin	0	0
bin	1	1
bin	2	0
statistic GridNetwork.node[49].port$o[0].channel messages:histogram
field count 1
field mean 1
field stddev nan
field min 1
field max 1
field sum 1
field sqrsum 1
attr interpolationmode none
attr recordingmode histogram
attr source constant1(messageSent)
bin	-inf	0
bin	0	0
bin	1	1
bin	2	0
par GridNetwork.node[50].port$o[0].channel typename "\"bgpdns.EidChannel\""
par GridNetwork.node[50].port$o[0].channel disabled false
attr mutable ""
par GridNetwork.node[50].port$o[0].channel delay 0.01s
attr mutable ""
attr unit s
statistic GridNetwork.node[50].port$o[0].channel messagesDiscarded:histogram
field count 1
field mean 1
field stddev nan
field min 1
field max 1
field sum 1
field sqrsum 1
attr interpolationmode none
attr recordingmode histogram
attr source constant1(messageDiscarded)
bin	-inf	0
bin	0	0
bin	1	1
bin	2	0
statistic GridNetwork.node[50].port$o[0].channel messages:histogram
field count 1
field mean 1
field stddev nan
field min 1
field max 1
field sum 1
field sqrsum 1
attr interpolationmode none
attr recordingmode histogram
attr source constant1(messageSent)
bin	-inf	0
bin	0	0
bin	1	1
bin	2	0
par GridNetwork.node[51].port$o[0].channel typename "\"bgpdns.EidChannel\""
par GridNetwork.node[51].port$o[0].channel disabled false
attr mutable ""
par GridNetwork.node[51].port$o[0].channel delay 0.01s
attr mutable ""
attr unit s
statistic GridNetwork.node[51].port$o[0].channel messagesDiscarded:histogram
field count 1
field mean 1
field stddev nan
field min 1
field max 1
field sum 1
field sqrsum 1
attr interpolationmode none
attr recordingmode histogram
attr source constant1(messageDiscarded)
bin	-inf	0
bin	0	0
bin	1	1
bin	2	0
statistic GridNetwork.node[51].port$o[0].channel messages:histogram
field count 1
field mean 1
field stddev nan
field min 1
field max 1
field sum 1
field sqrsum 1
attr interpolationmode none
attr recordingmode histogram
attr source constant1(messageSent)
bin	-inf	0
bin	0	0
bin	1	1
bin	2	0
par GridNetwork.node[51].port$o[1].channel typename "\"bgpdns.EidChannel\""
par GridNetwork.node[51].port$o[1].channel disabled false
attr mutable ""
par GridNetwork.node[51].port$o[1].channel delay 0.01s
attr mutable ""
attr unit s
statistic GridNetwork.node[51].port$o[1].channel messagesDiscarded:histogram
field count 1
field mean 1
field stddev nan
field min 1
field max 1
field sum 1
field sqrsum 1
attr interpolationmode none
attr recordingmode histogram
attr source constant1(messageDiscarded)
bin	-inf	0
bin	0	0
bin	1	1
bin	2	0
statistic GridNetwork.node[51].port$o[1].channel messages:histogram
field count 1
field mean 1
field stddev nan
field min 1
field max 1
field sum 1
field sqrsum 1
attr interpolationmode none
attr recordingmode histogram
attr source constant1(messageSent)
bin	-inf	0
bin	0	0
bin	1	1
bin	2	0
par GridNetwork.node[52].port$o[0].channel typename "\"bgpdns.EidChannel\""
par GridNetwork.node[52].port$o[0].channel disabled false
attr mutable ""
par GridNetwork.node[52].port$o[0].channel delay 0.01s
attr mutable ""
attr unit s
statistic GridNetwork.node[52].port$o[0].channel messagesDiscarded:histogram
field count 1
field mean 1
field stddev nan
field min 1
field max 1
field sum 1
field sqrsum 1
attr interpolationmode none
attr recordingmode histogram
attr source constant1(messageDiscarded)
bin	-inf	0
bin	0	0
bin	1	1
bin	2	0
statistic GridNetwork.node[52].port$o[0].channel messages:histogram
field count 1
field mean 1
field stddev nan
field min 1
field max 1
field sum 1
field sqrsum 1
attr interpolationmode none
attr recordingmode histogram
attr source constant1(messageSent)
bin	-inf	0
bin	0	0
bin	1	1
bin	2	0
par GridNetwork.node[52].port$o[1].channel typename "\"bgpdns.EidChannel\""
[...]
scalar GridNetwork.node[98] finalBgpTableSize 0
scalar GridNetwork.node[98] finalDnsCacheSize 0
scalar GridNetwork.node[98] finalDnsAuthoritySize 0
scalar GridNetwork.node[98] totalTableOperations 0
scalar GridNetwork.node[98] nodeId 98
scalar GridNetwork.node[98] correctAnswers:count 0
attr recordingmode count
scalar GridNetwork.node[98] correctAnswers:sum 0
attr recordingmode sum
statistic GridNetwork.node[98] correctAnswers:histogram
field count 0
field mean nan
field stddev nan
field min nan
field max nan
field sum 0
field sqrsum 0
attr recordingmode histogram
bin	-inf	0
bin	0	0
bin	1	0
scalar GridNetwork.node[98] staleAnswers:count 0
attr recordingmode count
scalar GridNetwork.node[98] staleAnswers:sum 0
attr recordingmode sum
statistic GridNetwork.node[98] staleAnswers:histogram
field count 0
field mean nan
field stddev nan
field min nan
field max nan
field sum 0
field sqrsum 0
attr recordingmode histogram
bin	-inf	0
bin	0	0
bin	1	0
scalar GridNetwork.node[98] discoveryLatency:mean nan
attr recordingmode mean
scalar GridNetwork.node[98] discoveryLatency:min nan
attr recordingmode min
scalar GridNetwork.node[98] discoveryLatency:max nan
attr recordingmode max
statistic GridNetwork.node[98] discoveryLatency:histogram
field count 0
field mean nan
field stddev nan
field min nan
field max nan
field sum 0
field sqrsum 0
attr recordingmode histogram
bin	-inf	0
bin	0	0
bin	1	0
scalar GridNetwork.node[98] tableOperations:sum 0
attr recordingmode sum
statistic GridNetwork.node[98] tableOperations:histogram
field count 0
field mean nan
field stddev nan
field min nan
field max nan
field sum 0
field sqrsum 0
attr recordingmode histogram
bin	-inf	0
bin	0	0
bin	1	0
scalar GridNetwork.node[98] messageBytesReceived:sum 72
attr recordingmode sum
statistic GridNetwork.node[98] messageBytesReceived:histogram
field count 1
field mean 72
field stddev nan
field min 72
field max 72
field sum 72
field sqrsum 5184
attr recordingmode histogram
bin	-inf	0
bin	71	0
bin	72	1
bin	73	0
scalar GridNetwork.node[98] messageBytesSent:sum 0
attr recordingmode sum
statistic GridNetwork.node[98] messageBytesSent:histogram
field count 0
field mean nan
field stddev nan
field min nan
field max nan
field sum 0
field sqrsum 0
attr recordingmode histogram
bin	-inf	0
bin	0	0
bin	1	0
scalar GridNetwork.node[98] dnsQueryLatency:mean nan
attr recordingmode mean
scalar GridNetwork.node[98] dnsQueryLatency:min nan
attr recordingmode min
scalar GridNetwork.node[98] dnsQueryLatency:max nan
attr recordingmode max
statistic GridNetwork.node[98] dnsQueryLatency:histogram
field count 0
field mean nan
field stddev nan
field min nan
field max nan
field sum 0
field sqrsum 0
attr recordingmode histogram
bin	-inf	0
bin	0	0
bin	1	0
scalar GridNetwork.node[98] dnsCacheMisses:count 0
attr recordingmode count
scalar GridNetwork.node[98] dnsCacheMisses:sum 0
attr recordingmode sum
statistic GridNetwork.node[98] dnsCacheMisses:histogram
field count 0
field mean nan
field stddev nan
field min nan
field max nan
field sum 0
field sqrsum 0
attr recordingmode histogram
bin	-inf	0
bin	0	0
bin	1	0
scalar GridNetwork.node[98] dnsCacheHits:count 0
attr recordingmode count
scalar GridNetwork.node[98] dnsCacheHits:sum 0
attr recordingmode sum
statistic GridNetwork.node[98] dnsCacheHits:histogram
field count 0
field mean nan
field stddev nan
field min nan
field max nan
field sum 0
field sqrsum 0
attr recordingmode histogram
bin	-inf	0
bin	0	0
bin	1	0
scalar GridNetwork.node[98] dnsCacheSize:last 0
attr recordingmode last
scalar GridNetwork.node[98] dnsCacheSize:max 0
attr recordingmode max
scalar GridNetwork.node[98] dnsCacheSize:timeavg nan
attr recordingmode timeavg
statistic GridNetwork.node[98] dnsCacheSize:histogram
field count 1
field mean 0
field stddev nan
field min 0
field max 0
field sum 0
field sqrsum 0
attr recordingmode histogram
bin	-inf	0
bin	-0.5	0
bin	-0.48	0
bin	-0.46	0
bin	-0.44	0
bin	-0.42	0
bin	-0.4	0
bin	-0.38	0
bin	-0.36	0
bin	-0.34	0
bin	-0.32	0
bin	-0.3	0
bin	-0.28	0
bin	-0.26	0
bin	-0.24	0
bin	-0.22	0
bin	-0.2	0
bin	-0.18	0
bin	-0.16	0
bin	-0.14	0
bin	-0.12	0
bin	-0.1	0
bin	-0.08	0
bin	-0.06	0
bin	-0.04	0
bin	-0.02	0
bin	0	1
bin	0.02	0
bin	0.04	0
bin	0.06	0
bin	0.08	0
bin	0.1	0
bin	0.12	0
bin	0.14	0
bin	0.16	0
bin	0.18	0
bin	0.2	0
bin	0.22	0
bin	0.24	0
bin	0.26	0
bin	0.28	0
bin	0.3	0
bin	0.32	0
bin	0.34	0
bin	0.36	0
bin	0.38	0
bin	0.4	0
bin	0.42	0
bin	0.44	0
bin	0.46	0
bin	0.48	0
bin	0.5	0
scalar GridNetwork.node[98] dnsRegistrationsSent:count 0
attr recordingmode count
scalar GridNetwork.node[98] dnsRegistrationsSent:sum 0
attr recordingmode sum
statistic GridNetwork.node[98] dnsRegistrationsSent:histogram
field count 0
field mean nan
field stddev nan
field min nan
field max nan
field sum 0
field sqrsum 0
attr recordingmode histogram
bin	-inf	0
bin	0	0
bin	1	0
scalar GridNetwork.node[98] dnsResponsesReceived:count 0
attr recordingmode count
scalar GridNetwork.node[98] dnsResponsesReceived:sum 0
attr recordingmode sum
statistic GridNetwork.node[98] dnsResponsesReceived:histogram
field count 0
field mean nan
field stddev nan
field min nan
field max nan
field sum 0
field sqrsum 0
attr recordingmode histogram
bin	-inf	0
bin	0	0
bin	1	0
scalar GridNetwork.node[98] dnsResponsesSent:count 0
attr recordingmode count
scalar GridNetwork.node[98] dnsResponsesSent:sum 0
attr recordingmode sum
statistic GridNetwork.node[98] dnsResponsesSent:histogram
field count 0
field mean nan
field stddev nan
field min nan
field max nan
field sum 0
field sqrsum 0
attr recordingmode histogram
bin	-inf	0
bin	0	0
bin	1	0
scalar GridNetwork.node[98] dnsQueriesReceived:count 0
attr recordingmode count
scalar GridNetwork.node[98] dnsQueriesReceived:sum 0
attr recordingmode sum
statistic GridNetwork.node[98] dnsQueriesReceived:histogram
field count 0
field mean nan
field stddev nan
field min nan
field max nan
field sum 0
field sqrsum 0
attr recordingmode histogram
bin	-inf	0
bin	0	0
bin	1	0
scalar GridNetwork.node[98] dnsQueriesSent:count 0
attr recordingmode count
scalar GridNetwork.node[98] dnsQueriesSent:sum 0
attr recordingmode sum
statistic GridNetwork.node[98] dnsQueriesSent:histogram
field count 0
field mean nan
field stddev nan
field min nan
field max nan
field sum 0
field sqrsum 0
attr recordingmode histogram
bin	-inf	0
bin	0	0
bin	1	0
scalar GridNetwork.node[98] bgpConvergenceTime:mean nan
attr recordingmode mean
scalar GridNetwork.node[98] bgpConvergenceTime:max nan
attr recordingmode max
statistic GridNetwork.node[98] bgpConvergenceTime:histogram
field count 0
field mean nan
field stddev nan
field min nan
field max nan
field sum 0
field sqrsum 0
attr recordingmode histogram
bin	-inf	0
bin	0	0
bin	1	0
scalar GridNetwork.node[98] bgpTableSize:last 0
attr recordingmode last
scalar GridNetwork.node[98] bgpTableSize:max 0
attr recordingmode max
scalar GridNetwork.node[98] bgpTableSize:timeavg nan
attr recordingmode timeavg
statistic GridNetwork.node[98] bgpTableSize:histogram
field count 1
field mean 0
field stddev nan
field min 0
field max 0
field sum 0
field sqrsum 0
attr recordingmode histogram
bin	-inf	0
bin	-0.5	0
bin	-0.48	0
bin	-0.46	0
bin	-0.44	0
bin	-0.42	0
bin	-0.4	0
bin	-0.38	0
bin	-0.36	0
bin	-0.34	0
bin	-0.32	0
bin	-0.3	0
bin	-0.28	0
bin	-0.26	0
bin	-0.24	0
bin	-0.22	0
bin	-0.2	0
bin	-0.18	0
bin	-0.16	0
bin	-0.14	0
bin	-0.12	0
bin	-0.1	0
bin	-0.08	0
bin	-0.06	0
bin	-0.04	0
bin	-0.02	0
bin	0	1
bin	0.02	0
bin	0.04	0
bin	0.06	0
bin	0.08	0
bin	0.1	0
bin	0.12	0
bin	0.14	0
bin	0.16	0
bin	0.18	0
bin	0.2	0
bin	0.22	0
bin	0.24	0
bin	0.26	0
bin	0.28	0
bin	0.3	0
bin	0.32	0
bin	0.34	0
bin	0.36	0
bin	0.38	0
bin	0.4	0
bin	0.42	0
bin	0.44	0
bin	0.46	0
bin	0.48	0
bin	0.5	0
scalar GridNetwork.node[98] bgpWithdrawsReceived:count 0
attr recordingmode count
scalar GridNetwork.node[98] bgpWithdrawsReceived:sum 0
attr recordingmode sum
statistic GridNetwork.node[98] bgpWithdrawsReceived:histogram
field count 0
field mean nan
field stddev nan
field min nan
field max nan
field sum 0
field sqrsum 0
attr recordingmode histogram
bin	-inf	0
bin	0	0
bin	1	0
scalar GridNetwork.node[98] bgpWithdrawsSent:count 0
attr recordingmode count
scalar GridNetwork.node[98] bgpWithdrawsSent:sum 0
attr recordingmode sum
statistic GridNetwork.node[98] bgpWithdrawsSent:histogram
field count 0
field mean nan
field stddev nan
field min nan
field max nan
field sum 0
field sqrsum 0
attr recordingmode histogram
bin	-inf	0
bin	0	0
bin	1	0
scalar GridNetwork.node[98] bgpAnnouncesReceived:count 0
attr recordingmode count
scalar GridNetwork.node[98] bgpAnnouncesReceived:sum 0
attr recordingmode sum
statistic GridNetwork.node[98] bgpAnnouncesReceived:histogram
field count 0
field mean nan
field stddev nan
field min nan
field max nan
field sum 0
field sqrsum 0
attr recordingmode histogram
bin	-inf	0
bin	0	0
bin	1	0
scalar GridNetwork.node[98] bgpAnnouncesSent:count 0
attr recordingmode count
scalar GridNetwork.node[98] bgpAnnouncesSent:sum 0
attr recordingmode sum
statistic GridNetwork.node[98] bgpAnnouncesSent:histogram
field count 0
field mean nan
field stddev nan
field min nan
field max nan
field sum 0
field sqrsum 0
attr recordingmode histogram
bin	-inf	0
bin	0	0
bin	1	0
par GridNetwork.node[99] typename "\"bgpdns.EidNode\""
par GridNetwork.node[99] nodeId -1
par GridNetwork.node[99] isPublisher true
par GridNetwork.node[99] isClient false
par GridNetwork.node[99] bgpEnabled false
par GridNetwork.node[99] dnsEnabled true
par GridNetwork.node[99] isResolver false
par GridNetwork.node[99] isAuthority false
par GridNetwork.node[99] isRoot false
par GridNetwork.node[99] authorityDomain -1
par GridNetwork.node[99] resolverNodeId -1
par GridNetwork.node[99] authorityNodeId 44
par GridNetwork.node[99] bgpKeepaliveInterval 30s
attr unit s
par GridNetwork.node[99] bgpHoldTime 90s
attr unit s
par GridNetwork.node[99] bgpPathVector true
par GridNetwork.node[99] bgpMaxPathLength 100
par GridNetwork.node[99] dnsTtl 60s
attr unit s
par GridNetwork.node[99] dnsCacheSize 10000
par GridNetwork.node[99] dnsQueryTimeout 5s
attr unit s
par GridNetwork.node[99] dnsMaxHierarchyDepth 5
par GridNetwork.node[99] publishEids "\"31-40\""
par GridNetwork.node[99] publishStartTime 1s
attr unit s
par GridNetwork.node[99] publishInterval 0s
attr unit s
par GridNetwork.node[99] claProtocol "\"tcpcl\""
par GridNetwork.node[99] claPort 4556
par GridNetwork.node[99] queryEids "\"\""
par GridNetwork.node[99] queryStartTime 10s
attr unit s
par GridNetwork.node[99] queryInterval 1s
attr unit s
par GridNetwork.node[99] queryCount 100
par GridNetwork.node[99] queryZipfAlpha 0
par GridNetwork.node[99] churnInterval 0s
attr unit s
par GridNetwork.node[99] churnProbability 0.1
par GridNetwork.node[99] withdrawProbability 0.3
par GridNetwork.node[99] processingDelayPerOp 0.0001s
attr unit s
scalar GridNetwork.node[99] finalBgpTableSize 0
scalar GridNetwork.node[99] finalDnsCacheSize 0
scalar GridNetwork.node[99] finalDnsAuthoritySize 0
scalar GridNetwork.node[99] totalTableOperations 0
scalar GridNetwork.node[99] nodeId 99
scalar GridNetwork.node[99] correctAnswers:count 0
attr recordingmode count
scalar GridNetwork.node[99] correctAnswers:sum 0
attr recordingmode sum
statistic GridNetwork.node[99] correctAnswers:histogram
field count 0
field mean nan
field stddev nan
field min nan
field max nan
field sum 0
field sqrsum 0
attr recordingmode histogram
bin	-inf	0
bin	0	0
bin	1	0
scalar GridNetwork.node[99] staleAnswers:count 0
attr recordingmode count
scalar GridNetwork.node[99] staleAnswers:sum 0
attr recordingmode sum
statistic GridNetwork.node[99] staleAnswers:histogram
field count 0
field mean nan
field stddev nan
field min nan
field max nan
field sum 0
field sqrsum 0
attr recordingmode histogram
bin	-inf	0
bin	0	0
bin	1	0
scalar GridNetwork.node[99] discoveryLatency:mean nan
attr recordingmode mean
scalar GridNetwork.node[99] discoveryLatency:min nan
attr recordingmode min
scalar GridNetwork.node[99] discoveryLatency:max nan
attr recordingmode max
statistic GridNetwork.node[99] discoveryLatency:histogram
field count 0
field mean nan
field stddev nan
field min nan
field max nan
field sum 0
field sqrsum 0
attr recordingmode histogram
bin	-inf	0
bin	0	0
bin	1	0
scalar GridNetwork.node[99] tableOperations:sum 0
attr recordingmode sum
statistic GridNetwork.node[99] tableOperations:histogram
field count 0
field mean nan
field stddev nan
field min nan
field max nan
field sum 0
field sqrsum 0
attr recordingmode histogram
bin	-inf	0
bin	0	0
bin	1	0
scalar GridNetwork.node[99] messageBytesReceived:sum 0
attr recordingmode sum
statistic GridNetwork.node[99] messageBytesReceived:histogram
field count 0
field mean nan
field stddev nan
field min nan
field max nan
field sum 0
field sqrsum 0
attr recordingmode histogram
bin	-inf	0
bin	0	0
bin	1	0
scalar GridNetwork.node[99] messageBytesSent:sum 72
attr recordingmode sum
statistic GridNetwork.node[99] messageBytesSent:histogram
field count 1
field mean 72
field stddev nan
field min 72
field max 72
field sum 72
field sqrsum 5184
attr recordingmode histogram
bin	-inf	0
bin	71	0
bin	72	1
bin	73	0
scalar GridNetwork.node[99] dnsQueryLatency:mean nan
attr recordingmode mean
scalar GridNetwork.node[99] dnsQueryLatency:min nan
attr recordingmode min
scalar GridNetwork.node[99] dnsQueryLatency:max nan
attr recordingmode max
statistic GridNetwork.node[99] dnsQueryLatency:histogram
field count 0
field mean nan
field stddev nan
field min nan
field max nan
field sum 0
field sqrsum 0
attr recordingmode histogram
bin	-inf	0
bin	0	0
bin	1	0
scalar GridNetwork.node[99] dnsCacheMisses:count 0
attr recordingmode count
scalar GridNetwork.node[99] dnsCacheMisses:sum 0
attr recordingmode sum
statistic GridNetwork.node[99] dnsCacheMisses:histogram
field count 0
field mean nan
field stddev nan
field min nan
field max nan
field sum 0
field sqrsum 0
attr recordingmode histogram
bin	-inf	0
bin	0	0
bin	1	0
scalar GridNetwork.node[99] dnsCacheHits:count 0
attr recordingmode count
scalar GridNetwork.node[99] dnsCacheHits:sum 0
attr recordingmode sum
statistic GridNetwork.node[99] dnsCacheHits:histogram
field count 0
field mean nan
field stddev nan
field min nan
field max nan
field sum 0
field sqrsum 0
attr recordingmode histogram
bin	-inf	0
bin	0	0
bin	1	0
scalar GridNetwork.node[99] dnsCacheSize:last 0
attr recordingmode last
scalar GridNetwork.node[99] dnsCacheSize:max 0
attr recordingmode max
scalar GridNetwork.node[99] dnsCacheSize:timeavg nan
attr recordingmode timeavg
statistic GridNetwork.node[99] dnsCacheSize:histogram
field count 1
field mean 0
field stddev nan
field min 0
field max 0
field sum 0
field sqrsum 0
attr recordingmode histogram
bin	-inf	0
bin	-0.5	0
bin	-0.48	0
bin	-0.46	0
bin	-0.44	0
bin	-0.42	0
bin	-0.4	0
bin	-0.38	0
bin	-0.36	0
bin	-0.34	0
bin	-0.32	0
bin	-0.3	0
bin	-0.28	0
bin	-0.26	0
bin	-0.24	0
bin	-0.22	0
bin	-0.2	0
bin	-0.18	0
bin	-0.16	0
bin	-0.14	0
bin	-0.12	0
bin	-0.1	0
bin	-0.08	0
bin	-0.06	0
bin	-0.04	0
bin	-0.02	0
bin	0	1
bin	0.02	0
bin	0.04	0
bin	0.06	0
bin	0.08	0
bin	0.1	0
bin	0.12	0
bin	0.14	0
bin	0.16	0
bin	0.18	0
bin	0.2	0
bin	0.22	0
bin	0.24	0
bin	0.26	0
bin	0.28	0
bin	0.3	0
bin	0.32	0
bin	0.34	0
bin	0.36	0
bin	0.38	0
bin	0.4	0
bin	0.42	0
bin	0.44	0
bin	0.46	0
bin	0.48	0
bin	0.5	0
scalar GridNetwork.node[99] dnsRegistrationsSent:count 1
attr recordingmode count
scalar GridNetwork.node[99] dnsRegistrationsSent:sum 1
attr recordingmode sum
statistic GridNetwork.node[99] dnsRegistrationsSent:histogram
field count 1
field mean 1
field stddev nan
field min 1
field max 1
field sum 1
field sqrsum 1
attr recordingmode histogram
bin	-inf	0
bin	0	0
bin	1	1
bin	2	0
scalar GridNetwork.node[99] dnsResponsesReceived:count 0
attr recordingmode count
scalar GridNetwork.node[99] dnsResponsesReceived:sum 0
attr recordingmode sum
statistic GridNetwork.node[99] dnsResponsesReceived:histogram
field count 0
field mean nan
field stddev nan
field min nan
field max nan
field sum 0
field sqrsum 0
attr recordingmode histogram
bin	-inf	0
bin	0	0
bin	1	0
scalar GridNetwork.node[99] dnsResponsesSent:count 0
attr recordingmode count
scalar GridNetwork.node[99] dnsResponsesSent:sum 0
attr recordingmode sum
statistic GridNetwork.node[99] dnsResponsesSent:histogram
field count 0
field mean nan
field stddev nan
field min nan
field max nan
field sum 0
field sqrsum 0
attr recordingmode histogram
bin	-inf	0
bin	0	0
bin	1	0
scalar GridNetwork.node[99] dnsQueriesReceived:count 0
attr recordingmode count
scalar GridNetwork.node[99] dnsQueriesReceived:sum 0
attr recordingmode sum
statistic GridNetwork.node[99] dnsQueriesReceived:histogram
field count 0
field mean nan
field stddev nan
field min nan
field max nan
field sum 0
field sqrsum 0
attr recordingmode histogram
bin	-inf	0
bin	0	0
bin	1	0
scalar GridNetwork.node[99] dnsQueriesSent:count 0
attr recordingmode count
scalar GridNetwork.node[99] dnsQueriesSent:sum 0
attr recordingmode sum
statistic GridNetwork.node[99] dnsQueriesSent:histogram
field count 0
field mean nan
field stddev nan
field min nan
field max nan
field sum 0
field sqrsum 0
attr recordingmode histogram
bin	-inf	0
bin	0	0
bin	1	0
scalar GridNetwork.node[99] bgpConvergenceTime:mean nan
attr recordingmode mean
scalar GridNetwork.node[99] bgpConvergenceTime:max nan
attr recordingmode max
statistic GridNetwork.node[99] bgpConvergenceTime:histogram
field count 0
field mean nan
field stddev nan
field min nan
field max nan
field sum 0
field sqrsum 0
attr recordingmode histogram
bin	-inf	0
bin	0	0
bin	1	0
scalar GridNetwork.node[99] bgpTableSize:last 0
attr recordingmode last
scalar GridNetwork.node[99] bgpTableSize:max 0
attr recordingmode max
scalar GridNetwork.node[99] bgpTableSize:timeavg nan
attr recordingmode timeavg
statistic GridNetwork.node[99] bgpTableSize:histogram
field count 1
field mean 0
field stddev nan
field min 0
field max 0
field sum 0
field sqrsum 0
attr recordingmode histogram
bin	-inf	0
bin	-0.5	0
bin	-0.48	0
bin	-0.46	0
bin	-0.44	0
bin	-0.42	0
bin	-0.4	0
bin	-0.38	0
bin	-0.36	0
bin	-0.34	0
bin	-0.32	0
bin	-0.3	0
bin	-0.28	0
bin	-0.26	0
bin	-0.24	0
bin	-0.22	0
bin	-0.2	0
bin	-0.18	0
bin	-0.16	0
bin	-0.14	0
bin	-0.12	0
bin	-0.1	0
bin	-0.08	0
bin	-0.06	0
bin	-0.04	0
bin	-0.02	0
bin	0	1
bin	0.02	0
bin	0.04	0
bin	0.06	0
bin	0.08	0
bin	0.1	0
bin	0.12	0
bin	0.14	0
bin	0.16	0
bin	0.18	0
bin	0.2	0
bin	0.22	0
bin	0.24	0
bin	0.26	0
bin	0.28	0
bin	0.3	0
bin	0.32	0
bin	0.34	0
bin	0.36	0
bin	0.38	0
bin	0.4	0
bin	0.42	0
bin	0.44	0
bin	0.46	0
bin	0.48	0
bin	0.5	0
scalar GridNetwork.node[99] bgpWithdrawsReceived:count 0
attr recordingmode count
scalar GridNetwork.node[99] bgpWithdrawsReceived:sum 0
attr recordingmode sum
statistic GridNetwork.node[99] bgpWithdrawsReceived:histogram
field count 0
field mean nan
field stddev nan
field min nan
field max nan
field sum 0
field sqrsum 0
attr recordingmode histogram
bin	-inf	0
bin	0	0
bin	1	0
scalar GridNetwork.node[99] bgpWithdrawsSent:count 0
attr recordingmode count
scalar GridNetwork.node[99] bgpWithdrawsSent:sum 0
attr recordingmode sum
statistic GridNetwork.node[99] bgpWithdrawsSent:histogram
field count 0
field mean nan
field stddev nan
field min nan
field max nan
field sum 0
field sqrsum 0
attr recordingmode histogram
bin	-inf	0
bin	0	0
bin	1	0
scalar GridNetwork.node[99] bgpAnnouncesReceived:count 0
attr recordingmode count
scalar GridNetwork.node[99] bgpAnnouncesReceived:sum 0
attr recordingmode sum
statistic GridNetwork.node[99] bgpAnnouncesReceived:histogram
field count 0
field mean nan
field stddev nan
field min nan
field max nan
field sum 0
field sqrsum 0
attr recordingmode histogram
bin	-inf	0
bin	0	0
bin	1	0
scalar GridNetwork.node[99] bgpAnnouncesSent:count 0
attr recordingmode count
scalar GridNetwork.node[99] bgpAnnouncesSent:sum 0
attr recordingmode sum
statistic GridNetwork.node[99] bgpAnnouncesSent:histogram
field count 0
field mean nan
field stddev nan
field min nan
field max nan
field sum 0
field sqrsum 0
attr recordingmode histogram
bin	-inf	0
bin	0	0
bin	1	0
par GridNetwork typename "\"bgpdns.GridNetwork\""
par GridNetwork gridWidth 10
par GridNetwork gridHeight 10

